/*---------------------------------------------------------------------------*\
  =========                 |
  \\      /  F ield         | OpenFOAM: The Open Source CFD Toolbox
   \\    /   O peration     | Website:  https://openfoam.org
    \\  /    A nd           | Version:  7
     \\/     M anipulation  |
\*---------------------------------------------------------------------------*/
Build  : 7-49b2b3b8b082
Exec   : blockMesh
Date   : May 07 2022
Time   : 00:25:20
Host   : "c506-004.stampede2.tacc.utexas.edu"
PID    : 210713
I/O    : uncollated
Case   : /work2/07752/as_tacc/stampede2/openfoam/code/work/run_5_10_test2
nProcs : 1
sigFpe : Enabling floating point exception trapping (FOAM_SIGFPE).
fileModificationChecking : Monitoring run-time modified files using timeStampMaster (fileModificationSkew 10)
allowSystemOperations : Allowing user-supplied system call operations

// * * * * * * * * * * * * * * * * * * * * * * * * * * * * * * * * * * * * * //
Create time

Creating block mesh from
    "/work2/07752/as_tacc/stampede2/openfoam/code/work/run_5_10_test2/system/blockMeshDict"
Creating block edges
No non-planar block faces defined
Creating topology blocks
Creating topology patches

Creating block mesh topology

Check topology

	Basic statistics
		Number of internal faces : 6
		Number of boundary faces : 30
		Number of defined boundary faces : 30
		Number of undefined boundary faces : 0
	Checking patch -> block consistency

Creating block offsets
Creating merge list .

Creating polyMesh from blockMesh
Creating points with scale 1
    Block 0 cell size :
        i : 0.01 .. 0.01
        j : 0.01 .. 0.01
        k : 0.2
    Block 1 cell size :
        i : 0.01 .. 0.01
        j : 0.01 .. 0.01
        k : 0.2
    Block 2 cell size :
        i : 0.01 .. 0.01
        j : 0.01
        k : 0.2
    Block 3 cell size :
        i : 0.01 .. 0.01
        j : 0.01
        k : 0.2
    Block 4 cell size :
        i : 0.01 .. 0.01
        j : 0.01 .. 0.01
        k : 0.2
    Block 5 cell size :
        i : 0.01 .. 0.01
        j : 0.01
        k : 0.2
    Block 6 cell size :
        i : 0.01 .. 0.01
        j : 0.01
        k : 0.2
Creating cells
Creating patches

There are no merge patch pairs edges

Writing polyMesh
----------------
Mesh Information
----------------
  boundingBox: (0 0 -0.1) (1 1.2 0.1)
  nPoints: 22732
  nCells: 11050
  nFaces: 44515
  nInternalFaces: 21785
----------------
Patches
----------------
  patch 0 (start: 21785 size: 10) name: inlet
  patch 1 (start: 21795 size: 10) name: outlet
  patch 2 (start: 21805 size: 610) name: fixedWalls
  patch 3 (start: 22415 size: 22100) name: frontAndBack

End

