/*---------------------------------------------------------------------------*\
  =========                 |
  \\      /  F ield         | OpenFOAM: The Open Source CFD Toolbox
   \\    /   O peration     | Website:  https://openfoam.org
    \\  /    A nd           | Version:  7
     \\/     M anipulation  |
\*---------------------------------------------------------------------------*/
Build  : 7-49b2b3b8b082
Exec   : reconstructPar
Date   : Mar 22 2022
Time   : 18:28:05
Host   : "c499-133.stampede2.tacc.utexas.edu"
PID    : 164824
I/O    : uncollated
Case   : /work2/07752/as_tacc/stampede2/openfoam/code/sim
nProcs : 1
sigFpe : Enabling floating point exception trapping (FOAM_SIGFPE).
fileModificationChecking : Monitoring run-time modified files using timeStampMaster (fileModificationSkew 10)
allowSystemOperations : Allowing user-supplied system call operations

// * * * * * * * * * * * * * * * * * * * * * * * * * * * * * * * * * * * * * //
Create time



Reconstructing fields for mesh region0

Time = 0.1

Reconstructing FV fields

    Reconstructing volScalarFields

        p

    Reconstructing volVectorFields

        U

    Reconstructing surfaceScalarFields

        phi

Reconstructing point fields

No point fields

No lagrangian fields

Time = 0.2

Reconstructing FV fields

    Reconstructing volScalarFields

        p

    Reconstructing volVectorFields

        U

    Reconstructing surfaceScalarFields

        phi

Reconstructing point fields

No point fields

No lagrangian fields

Time = 0.3

Reconstructing FV fields

    Reconstructing volScalarFields

        p

    Reconstructing volVectorFields

        U

    Reconstructing surfaceScalarFields

        phi

Reconstructing point fields

No point fields

No lagrangian fields

Time = 0.4

Reconstructing FV fields

    Reconstructing volScalarFields

        p

    Reconstructing volVectorFields

        U

    Reconstructing surfaceScalarFields

        phi

Reconstructing point fields

No point fields

No lagrangian fields

Time = 0.5

Reconstructing FV fields

    Reconstructing volScalarFields

        p

    Reconstructing volVectorFields

        U

    Reconstructing surfaceScalarFields

        phi

Reconstructing point fields

No point fields

No lagrangian fields

Time = 0.6

Reconstructing FV fields

    Reconstructing volScalarFields

        p

    Reconstructing volVectorFields

        U

    Reconstructing surfaceScalarFields

        phi

Reconstructing point fields

No point fields

No lagrangian fields

Time = 0.7

Reconstructing FV fields

    Reconstructing volScalarFields

        p

    Reconstructing volVectorFields

        U

    Reconstructing surfaceScalarFields

        phi

Reconstructing point fields

No point fields

No lagrangian fields

Time = 0.8

Reconstructing FV fields

    Reconstructing volScalarFields

        p

    Reconstructing volVectorFields

        U

    Reconstructing surfaceScalarFields

        phi

Reconstructing point fields

No point fields

No lagrangian fields

Time = 0.9

Reconstructing FV fields

    Reconstructing volScalarFields

        p

    Reconstructing volVectorFields

        U

    Reconstructing surfaceScalarFields

        phi

Reconstructing point fields

No point fields

No lagrangian fields

Time = 1

Reconstructing FV fields

    Reconstructing volScalarFields

        p

    Reconstructing volVectorFields

        U

    Reconstructing surfaceScalarFields

        phi

Reconstructing point fields

No point fields

No lagrangian fields

Time = 1.1

Reconstructing FV fields

    Reconstructing volScalarFields

        p

    Reconstructing volVectorFields

        U

    Reconstructing surfaceScalarFields

        phi

Reconstructing point fields

No point fields

No lagrangian fields

Time = 1.2

Reconstructing FV fields

    Reconstructing volScalarFields

        p

    Reconstructing volVectorFields

        U

    Reconstructing surfaceScalarFields

        phi

Reconstructing point fields

No point fields

No lagrangian fields

Time = 1.3

Reconstructing FV fields

    Reconstructing volScalarFields

        p

    Reconstructing volVectorFields

        U

    Reconstructing surfaceScalarFields

        phi

Reconstructing point fields

No point fields

No lagrangian fields

Time = 1.4

Reconstructing FV fields

    Reconstructing volScalarFields

        p

    Reconstructing volVectorFields

        U

    Reconstructing surfaceScalarFields

        phi

Reconstructing point fields

No point fields

No lagrangian fields

Time = 1.5

Reconstructing FV fields

    Reconstructing volScalarFields

        p

    Reconstructing volVectorFields

        U

    Reconstructing surfaceScalarFields

        phi

Reconstructing point fields

No point fields

No lagrangian fields

Time = 1.6

Reconstructing FV fields

    Reconstructing volScalarFields

        p

    Reconstructing volVectorFields

        U

    Reconstructing surfaceScalarFields

        phi

Reconstructing point fields

No point fields

No lagrangian fields

Time = 1.7

Reconstructing FV fields

    Reconstructing volScalarFields

        p

    Reconstructing volVectorFields

        U

    Reconstructing surfaceScalarFields

        phi

Reconstructing point fields

No point fields

No lagrangian fields

Time = 1.8

Reconstructing FV fields

    Reconstructing volScalarFields

        p

    Reconstructing volVectorFields

        U

    Reconstructing surfaceScalarFields

        phi

Reconstructing point fields

No point fields

No lagrangian fields

Time = 1.9

Reconstructing FV fields

    Reconstructing volScalarFields

        p

    Reconstructing volVectorFields

        U

    Reconstructing surfaceScalarFields

        phi

Reconstructing point fields

No point fields

No lagrangian fields

Time = 2

Reconstructing FV fields

    Reconstructing volScalarFields

        p

    Reconstructing volVectorFields

        U

    Reconstructing surfaceScalarFields

        phi

Reconstructing point fields

No point fields

No lagrangian fields

Time = 2.1

Reconstructing FV fields

    Reconstructing volScalarFields

        p

    Reconstructing volVectorFields

        U

    Reconstructing surfaceScalarFields

        phi

Reconstructing point fields

No point fields

No lagrangian fields

Time = 2.2

Reconstructing FV fields

    Reconstructing volScalarFields

        p

    Reconstructing volVectorFields

        U

    Reconstructing surfaceScalarFields

        phi

Reconstructing point fields

No point fields

No lagrangian fields

Time = 2.3

Reconstructing FV fields

    Reconstructing volScalarFields

        p

    Reconstructing volVectorFields

        U

    Reconstructing surfaceScalarFields

        phi

Reconstructing point fields

No point fields

No lagrangian fields

Time = 2.4

Reconstructing FV fields

    Reconstructing volScalarFields

        p

    Reconstructing volVectorFields

        U

    Reconstructing surfaceScalarFields

        phi

Reconstructing point fields

No point fields

No lagrangian fields

Time = 2.5

Reconstructing FV fields

    Reconstructing volScalarFields

        p

    Reconstructing volVectorFields

        U

    Reconstructing surfaceScalarFields

        phi

Reconstructing point fields

No point fields

No lagrangian fields

Time = 2.6

Reconstructing FV fields

    Reconstructing volScalarFields

        p

    Reconstructing volVectorFields

        U

    Reconstructing surfaceScalarFields

        phi

Reconstructing point fields

No point fields

No lagrangian fields

Time = 2.7

Reconstructing FV fields

    Reconstructing volScalarFields

        p

    Reconstructing volVectorFields

        U

    Reconstructing surfaceScalarFields

        phi

Reconstructing point fields

No point fields

No lagrangian fields

Time = 2.8

Reconstructing FV fields

    Reconstructing volScalarFields

        p

    Reconstructing volVectorFields

        U

    Reconstructing surfaceScalarFields

        phi

Reconstructing point fields

No point fields

No lagrangian fields

Time = 2.9

Reconstructing FV fields

    Reconstructing volScalarFields

        p

    Reconstructing volVectorFields

        U

    Reconstructing surfaceScalarFields

        phi

Reconstructing point fields

No point fields

No lagrangian fields

Time = 3

Reconstructing FV fields

    Reconstructing volScalarFields

        p

    Reconstructing volVectorFields

        U

    Reconstructing surfaceScalarFields

        phi

Reconstructing point fields

No point fields

No lagrangian fields

Time = 3.1

Reconstructing FV fields

    Reconstructing volScalarFields

        p

    Reconstructing volVectorFields

        U

    Reconstructing surfaceScalarFields

        phi

Reconstructing point fields

No point fields

No lagrangian fields

Time = 3.2

Reconstructing FV fields

    Reconstructing volScalarFields

        p

    Reconstructing volVectorFields

        U

    Reconstructing surfaceScalarFields

        phi

Reconstructing point fields

No point fields

No lagrangian fields

Time = 3.3

Reconstructing FV fields

    Reconstructing volScalarFields

        p

    Reconstructing volVectorFields

        U

    Reconstructing surfaceScalarFields

        phi

Reconstructing point fields

No point fields

No lagrangian fields

Time = 3.4

Reconstructing FV fields

    Reconstructing volScalarFields

        p

    Reconstructing volVectorFields

        U

    Reconstructing surfaceScalarFields

        phi

Reconstructing point fields

No point fields

No lagrangian fields

Time = 3.5

Reconstructing FV fields

    Reconstructing volScalarFields

        p

    Reconstructing volVectorFields

        U

    Reconstructing surfaceScalarFields

        phi

Reconstructing point fields

No point fields

No lagrangian fields

Time = 3.6

Reconstructing FV fields

    Reconstructing volScalarFields

        p

    Reconstructing volVectorFields

        U

    Reconstructing surfaceScalarFields

        phi

Reconstructing point fields

No point fields

No lagrangian fields

Time = 3.7

Reconstructing FV fields

    Reconstructing volScalarFields

        p

    Reconstructing volVectorFields

        U

    Reconstructing surfaceScalarFields

        phi

Reconstructing point fields

No point fields

No lagrangian fields

Time = 3.8

Reconstructing FV fields

    Reconstructing volScalarFields

        p

    Reconstructing volVectorFields

        U

    Reconstructing surfaceScalarFields

        phi

Reconstructing point fields

No point fields

No lagrangian fields

Time = 3.9

Reconstructing FV fields

    Reconstructing volScalarFields

        p

    Reconstructing volVectorFields

        U

    Reconstructing surfaceScalarFields

        phi

Reconstructing point fields

No point fields

No lagrangian fields

Time = 4

Reconstructing FV fields

    Reconstructing volScalarFields

        p

    Reconstructing volVectorFields

        U

    Reconstructing surfaceScalarFields

        phi

Reconstructing point fields

No point fields

No lagrangian fields

Time = 4.1

Reconstructing FV fields

    Reconstructing volScalarFields

        p

    Reconstructing volVectorFields

        U

    Reconstructing surfaceScalarFields

        phi

Reconstructing point fields

No point fields

No lagrangian fields

Time = 4.2

Reconstructing FV fields

    Reconstructing volScalarFields

        p

    Reconstructing volVectorFields

        U

    Reconstructing surfaceScalarFields

        phi

Reconstructing point fields

No point fields

No lagrangian fields

Time = 4.3

Reconstructing FV fields

    Reconstructing volScalarFields

        p

    Reconstructing volVectorFields

        U

    Reconstructing surfaceScalarFields

        phi

Reconstructing point fields

No point fields

No lagrangian fields

Time = 4.4

Reconstructing FV fields

    Reconstructing volScalarFields

        p

    Reconstructing volVectorFields

        U

    Reconstructing surfaceScalarFields

        phi

Reconstructing point fields

No point fields

No lagrangian fields

Time = 4.5

Reconstructing FV fields

    Reconstructing volScalarFields

        p

    Reconstructing volVectorFields

        U

    Reconstructing surfaceScalarFields

        phi

Reconstructing point fields

No point fields

No lagrangian fields

Time = 4.6

Reconstructing FV fields

    Reconstructing volScalarFields

        p

    Reconstructing volVectorFields

        U

    Reconstructing surfaceScalarFields

        phi

Reconstructing point fields

No point fields

No lagrangian fields

Time = 4.7

Reconstructing FV fields

    Reconstructing volScalarFields

        p

    Reconstructing volVectorFields

        U

    Reconstructing surfaceScalarFields

        phi

Reconstructing point fields

No point fields

No lagrangian fields

Time = 4.8

Reconstructing FV fields

    Reconstructing volScalarFields

        p

    Reconstructing volVectorFields

        U

    Reconstructing surfaceScalarFields

        phi

Reconstructing point fields

No point fields

No lagrangian fields

Time = 4.9

Reconstructing FV fields

    Reconstructing volScalarFields

        p

    Reconstructing volVectorFields

        U

    Reconstructing surfaceScalarFields

        phi

Reconstructing point fields

No point fields

No lagrangian fields

Time = 5

Reconstructing FV fields

    Reconstructing volScalarFields

        p

    Reconstructing volVectorFields

        U

    Reconstructing surfaceScalarFields

        phi

Reconstructing point fields

No point fields

No lagrangian fields

Time = 5.1

Reconstructing FV fields

    Reconstructing volScalarFields

        p

    Reconstructing volVectorFields

        U

    Reconstructing surfaceScalarFields

        phi

Reconstructing point fields

No point fields

No lagrangian fields

Time = 5.2

Reconstructing FV fields

    Reconstructing volScalarFields

        p

    Reconstructing volVectorFields

        U

    Reconstructing surfaceScalarFields

        phi

Reconstructing point fields

No point fields

No lagrangian fields

Time = 5.3

Reconstructing FV fields

    Reconstructing volScalarFields

        p

    Reconstructing volVectorFields

        U

    Reconstructing surfaceScalarFields

        phi

Reconstructing point fields

No point fields

No lagrangian fields

Time = 5.4

Reconstructing FV fields

    Reconstructing volScalarFields

        p

    Reconstructing volVectorFields

        U

    Reconstructing surfaceScalarFields

        phi

Reconstructing point fields

No point fields

No lagrangian fields

Time = 5.5

Reconstructing FV fields

    Reconstructing volScalarFields

        p

    Reconstructing volVectorFields

        U

    Reconstructing surfaceScalarFields

        phi

Reconstructing point fields

No point fields

No lagrangian fields

Time = 5.6

Reconstructing FV fields

    Reconstructing volScalarFields

        p

    Reconstructing volVectorFields

        U

    Reconstructing surfaceScalarFields

        phi

Reconstructing point fields

No point fields

No lagrangian fields

Time = 5.7

Reconstructing FV fields

    Reconstructing volScalarFields

        p

    Reconstructing volVectorFields

        U

    Reconstructing surfaceScalarFields

        phi

Reconstructing point fields

No point fields

No lagrangian fields

Time = 5.8

Reconstructing FV fields

    Reconstructing volScalarFields

        p

    Reconstructing volVectorFields

        U

    Reconstructing surfaceScalarFields

        phi

Reconstructing point fields

No point fields

No lagrangian fields

Time = 5.9

Reconstructing FV fields

    Reconstructing volScalarFields

        p

    Reconstructing volVectorFields

        U

    Reconstructing surfaceScalarFields

        phi

Reconstructing point fields

No point fields

No lagrangian fields

Time = 6

Reconstructing FV fields

    Reconstructing volScalarFields

        p

    Reconstructing volVectorFields

        U

    Reconstructing surfaceScalarFields

        phi

Reconstructing point fields

No point fields

No lagrangian fields

Time = 6.1

Reconstructing FV fields

    Reconstructing volScalarFields

        p

    Reconstructing volVectorFields

        U

    Reconstructing surfaceScalarFields

        phi

Reconstructing point fields

No point fields

No lagrangian fields

Time = 6.2

Reconstructing FV fields

    Reconstructing volScalarFields

        p

    Reconstructing volVectorFields

        U

    Reconstructing surfaceScalarFields

        phi

Reconstructing point fields

No point fields

No lagrangian fields

Time = 6.3

Reconstructing FV fields

    Reconstructing volScalarFields

        p

    Reconstructing volVectorFields

        U

    Reconstructing surfaceScalarFields

        phi

Reconstructing point fields

No point fields

No lagrangian fields

Time = 6.4

Reconstructing FV fields

    Reconstructing volScalarFields

        p

    Reconstructing volVectorFields

        U

    Reconstructing surfaceScalarFields

        phi

Reconstructing point fields

No point fields

No lagrangian fields

Time = 6.5

Reconstructing FV fields

    Reconstructing volScalarFields

        p

    Reconstructing volVectorFields

        U

    Reconstructing surfaceScalarFields

        phi

Reconstructing point fields

No point fields

No lagrangian fields

Time = 6.6

Reconstructing FV fields

    Reconstructing volScalarFields

        p

    Reconstructing volVectorFields

        U

    Reconstructing surfaceScalarFields

        phi

Reconstructing point fields

No point fields

No lagrangian fields

Time = 6.7

Reconstructing FV fields

    Reconstructing volScalarFields

        p

    Reconstructing volVectorFields

        U

    Reconstructing surfaceScalarFields

        phi

Reconstructing point fields

No point fields

No lagrangian fields

Time = 6.8

Reconstructing FV fields

    Reconstructing volScalarFields

        p

    Reconstructing volVectorFields

        U

    Reconstructing surfaceScalarFields

        phi

Reconstructing point fields

No point fields

No lagrangian fields

Time = 6.9

Reconstructing FV fields

    Reconstructing volScalarFields

        p

    Reconstructing volVectorFields

        U

    Reconstructing surfaceScalarFields

        phi

Reconstructing point fields

No point fields

No lagrangian fields

Time = 7

Reconstructing FV fields

    Reconstructing volScalarFields

        p

    Reconstructing volVectorFields

        U

    Reconstructing surfaceScalarFields

        phi

Reconstructing point fields

No point fields

No lagrangian fields

Time = 7.1

Reconstructing FV fields

    Reconstructing volScalarFields

        p

    Reconstructing volVectorFields

        U

    Reconstructing surfaceScalarFields

        phi

Reconstructing point fields

No point fields

No lagrangian fields

Time = 7.2

Reconstructing FV fields

    Reconstructing volScalarFields

        p

    Reconstructing volVectorFields

        U

    Reconstructing surfaceScalarFields

        phi

Reconstructing point fields

No point fields

No lagrangian fields

Time = 7.3

Reconstructing FV fields

    Reconstructing volScalarFields

        p

    Reconstructing volVectorFields

        U

    Reconstructing surfaceScalarFields

        phi

Reconstructing point fields

No point fields

No lagrangian fields

Time = 7.4

Reconstructing FV fields

    Reconstructing volScalarFields

        p

    Reconstructing volVectorFields

        U

    Reconstructing surfaceScalarFields

        phi

Reconstructing point fields

No point fields

No lagrangian fields

Time = 7.5

Reconstructing FV fields

    Reconstructing volScalarFields

        p

    Reconstructing volVectorFields

        U

    Reconstructing surfaceScalarFields

        phi

Reconstructing point fields

No point fields

No lagrangian fields

Time = 7.6

Reconstructing FV fields

    Reconstructing volScalarFields

        p

    Reconstructing volVectorFields

        U

    Reconstructing surfaceScalarFields

        phi

Reconstructing point fields

No point fields

No lagrangian fields

Time = 7.7

Reconstructing FV fields

    Reconstructing volScalarFields

        p

    Reconstructing volVectorFields

        U

    Reconstructing surfaceScalarFields

        phi

Reconstructing point fields

No point fields

No lagrangian fields

Time = 7.8

Reconstructing FV fields

    Reconstructing volScalarFields

        p

    Reconstructing volVectorFields

        U

    Reconstructing surfaceScalarFields

        phi

Reconstructing point fields

No point fields

No lagrangian fields

Time = 7.9

Reconstructing FV fields

    Reconstructing volScalarFields

        p

    Reconstructing volVectorFields

        U

    Reconstructing surfaceScalarFields

        phi

Reconstructing point fields

No point fields

No lagrangian fields

Time = 8

Reconstructing FV fields

    Reconstructing volScalarFields

        p

    Reconstructing volVectorFields

        U

    Reconstructing surfaceScalarFields

        phi

Reconstructing point fields

No point fields

No lagrangian fields

Time = 8.1

Reconstructing FV fields

    Reconstructing volScalarFields

        p

    Reconstructing volVectorFields

        U

    Reconstructing surfaceScalarFields

        phi

Reconstructing point fields

No point fields

No lagrangian fields

Time = 8.2

Reconstructing FV fields

    Reconstructing volScalarFields

        p

    Reconstructing volVectorFields

        U

    Reconstructing surfaceScalarFields

        phi

Reconstructing point fields

No point fields

No lagrangian fields

Time = 8.3

Reconstructing FV fields

    Reconstructing volScalarFields

        p

    Reconstructing volVectorFields

        U

    Reconstructing surfaceScalarFields

        phi

Reconstructing point fields

No point fields

No lagrangian fields

Time = 8.4

Reconstructing FV fields

    Reconstructing volScalarFields

        p

    Reconstructing volVectorFields

        U

    Reconstructing surfaceScalarFields

        phi

Reconstructing point fields

No point fields

No lagrangian fields

Time = 8.5

Reconstructing FV fields

    Reconstructing volScalarFields

        p

    Reconstructing volVectorFields

        U

    Reconstructing surfaceScalarFields

        phi

Reconstructing point fields

No point fields

No lagrangian fields

Time = 8.6

Reconstructing FV fields

    Reconstructing volScalarFields

        p

    Reconstructing volVectorFields

        U

    Reconstructing surfaceScalarFields

        phi

Reconstructing point fields

No point fields

No lagrangian fields

Time = 8.7

Reconstructing FV fields

    Reconstructing volScalarFields

        p

    Reconstructing volVectorFields

        U

    Reconstructing surfaceScalarFields

        phi

Reconstructing point fields

No point fields

No lagrangian fields

Time = 8.8

Reconstructing FV fields

    Reconstructing volScalarFields

        p

    Reconstructing volVectorFields

        U

    Reconstructing surfaceScalarFields

        phi

Reconstructing point fields

No point fields

No lagrangian fields

Time = 8.9

Reconstructing FV fields

    Reconstructing volScalarFields

        p

    Reconstructing volVectorFields

        U

    Reconstructing surfaceScalarFields

        phi

Reconstructing point fields

No point fields

No lagrangian fields

Time = 9

Reconstructing FV fields

    Reconstructing volScalarFields

        p

    Reconstructing volVectorFields

        U

    Reconstructing surfaceScalarFields

        phi

Reconstructing point fields

No point fields

No lagrangian fields

Time = 9.1

Reconstructing FV fields

    Reconstructing volScalarFields

        p

    Reconstructing volVectorFields

        U

    Reconstructing surfaceScalarFields

        phi

Reconstructing point fields

No point fields

No lagrangian fields

Time = 9.2

Reconstructing FV fields

    Reconstructing volScalarFields

        p

    Reconstructing volVectorFields

        U

    Reconstructing surfaceScalarFields

        phi

Reconstructing point fields

No point fields

No lagrangian fields

Time = 9.3

Reconstructing FV fields

    Reconstructing volScalarFields

        p

    Reconstructing volVectorFields

        U

    Reconstructing surfaceScalarFields

        phi

Reconstructing point fields

No point fields

No lagrangian fields

Time = 9.4

Reconstructing FV fields

    Reconstructing volScalarFields

        p

    Reconstructing volVectorFields

        U

    Reconstructing surfaceScalarFields

        phi

Reconstructing point fields

No point fields

No lagrangian fields

Time = 9.5

Reconstructing FV fields

    Reconstructing volScalarFields

        p

    Reconstructing volVectorFields

        U

    Reconstructing surfaceScalarFields

        phi

Reconstructing point fields

No point fields

No lagrangian fields

Time = 9.6

Reconstructing FV fields

    Reconstructing volScalarFields

        p

    Reconstructing volVectorFields

        U

    Reconstructing surfaceScalarFields

        phi

Reconstructing point fields

No point fields

No lagrangian fields

Time = 9.7

Reconstructing FV fields

    Reconstructing volScalarFields

        p

    Reconstructing volVectorFields

        U

    Reconstructing surfaceScalarFields

        phi

Reconstructing point fields

No point fields

No lagrangian fields

Time = 9.8

Reconstructing FV fields

    Reconstructing volScalarFields

        p

    Reconstructing volVectorFields

        U

    Reconstructing surfaceScalarFields

        phi

Reconstructing point fields

No point fields

No lagrangian fields

Time = 9.9

Reconstructing FV fields

    Reconstructing volScalarFields

        p

    Reconstructing volVectorFields

        U

    Reconstructing surfaceScalarFields

        phi

Reconstructing point fields

No point fields

No lagrangian fields

Time = 10

Reconstructing FV fields

    Reconstructing volScalarFields

        p

    Reconstructing volVectorFields

        U

    Reconstructing surfaceScalarFields

        phi

Reconstructing point fields

No point fields

No lagrangian fields

Time = 10.1

Reconstructing FV fields

    Reconstructing volScalarFields

        p

    Reconstructing volVectorFields

        U

    Reconstructing surfaceScalarFields

        phi

Reconstructing point fields

No point fields

No lagrangian fields

Time = 10.2

Reconstructing FV fields

    Reconstructing volScalarFields

        p

    Reconstructing volVectorFields

        U

    Reconstructing surfaceScalarFields

        phi

Reconstructing point fields

No point fields

No lagrangian fields

Time = 10.3

Reconstructing FV fields

    Reconstructing volScalarFields

        p

    Reconstructing volVectorFields

        U

    Reconstructing surfaceScalarFields

        phi

Reconstructing point fields

No point fields

No lagrangian fields

Time = 10.4

Reconstructing FV fields

    Reconstructing volScalarFields

        p

    Reconstructing volVectorFields

        U

    Reconstructing surfaceScalarFields

        phi

Reconstructing point fields

No point fields

No lagrangian fields

Time = 10.5

Reconstructing FV fields

    Reconstructing volScalarFields

        p

    Reconstructing volVectorFields

        U

    Reconstructing surfaceScalarFields

        phi

Reconstructing point fields

No point fields

No lagrangian fields

Time = 10.6

Reconstructing FV fields

    Reconstructing volScalarFields

        p

    Reconstructing volVectorFields

        U

    Reconstructing surfaceScalarFields

        phi

Reconstructing point fields

No point fields

No lagrangian fields

Time = 10.7

Reconstructing FV fields

    Reconstructing volScalarFields

        p

    Reconstructing volVectorFields

        U

    Reconstructing surfaceScalarFields

        phi

Reconstructing point fields

No point fields

No lagrangian fields

Time = 10.8

Reconstructing FV fields

    Reconstructing volScalarFields

        p

    Reconstructing volVectorFields

        U

    Reconstructing surfaceScalarFields

        phi

Reconstructing point fields

No point fields

No lagrangian fields

Time = 10.9

Reconstructing FV fields

    Reconstructing volScalarFields

        p

    Reconstructing volVectorFields

        U

    Reconstructing surfaceScalarFields

        phi

Reconstructing point fields

No point fields

No lagrangian fields

Time = 11

Reconstructing FV fields

    Reconstructing volScalarFields

        p

    Reconstructing volVectorFields

        U

    Reconstructing surfaceScalarFields

        phi

Reconstructing point fields

No point fields

No lagrangian fields

Time = 11.1

Reconstructing FV fields

    Reconstructing volScalarFields

        p

    Reconstructing volVectorFields

        U

    Reconstructing surfaceScalarFields

        phi

Reconstructing point fields

No point fields

No lagrangian fields

Time = 11.2

Reconstructing FV fields

    Reconstructing volScalarFields

        p

    Reconstructing volVectorFields

        U

    Reconstructing surfaceScalarFields

        phi

Reconstructing point fields

No point fields

No lagrangian fields

Time = 11.3

Reconstructing FV fields

    Reconstructing volScalarFields

        p

    Reconstructing volVectorFields

        U

    Reconstructing surfaceScalarFields

        phi

Reconstructing point fields

No point fields

No lagrangian fields

Time = 11.4

Reconstructing FV fields

    Reconstructing volScalarFields

        p

    Reconstructing volVectorFields

        U

    Reconstructing surfaceScalarFields

        phi

Reconstructing point fields

No point fields

No lagrangian fields

Time = 11.5

Reconstructing FV fields

    Reconstructing volScalarFields

        p

    Reconstructing volVectorFields

        U

    Reconstructing surfaceScalarFields

        phi

Reconstructing point fields

No point fields

No lagrangian fields

Time = 11.6

Reconstructing FV fields

    Reconstructing volScalarFields

        p

    Reconstructing volVectorFields

        U

    Reconstructing surfaceScalarFields

        phi

Reconstructing point fields

No point fields

No lagrangian fields

Time = 11.7

Reconstructing FV fields

    Reconstructing volScalarFields

        p

    Reconstructing volVectorFields

        U

    Reconstructing surfaceScalarFields

        phi

Reconstructing point fields

No point fields

No lagrangian fields

Time = 11.8

Reconstructing FV fields

    Reconstructing volScalarFields

        p

    Reconstructing volVectorFields

        U

    Reconstructing surfaceScalarFields

        phi

Reconstructing point fields

No point fields

No lagrangian fields

Time = 11.9

Reconstructing FV fields

    Reconstructing volScalarFields

        p

    Reconstructing volVectorFields

        U

    Reconstructing surfaceScalarFields

        phi

Reconstructing point fields

No point fields

No lagrangian fields

Time = 12

Reconstructing FV fields

    Reconstructing volScalarFields

        p

    Reconstructing volVectorFields

        U

    Reconstructing surfaceScalarFields

        phi

Reconstructing point fields

No point fields

No lagrangian fields

Time = 12.1

Reconstructing FV fields

    Reconstructing volScalarFields

        p

    Reconstructing volVectorFields

        U

    Reconstructing surfaceScalarFields

        phi

Reconstructing point fields

No point fields

No lagrangian fields

Time = 12.2

Reconstructing FV fields

    Reconstructing volScalarFields

        p

    Reconstructing volVectorFields

        U

    Reconstructing surfaceScalarFields

        phi

Reconstructing point fields

No point fields

No lagrangian fields

Time = 12.3

Reconstructing FV fields

    Reconstructing volScalarFields

        p

    Reconstructing volVectorFields

        U

    Reconstructing surfaceScalarFields

        phi

Reconstructing point fields

No point fields

No lagrangian fields

Time = 12.4

Reconstructing FV fields

    Reconstructing volScalarFields

        p

    Reconstructing volVectorFields

        U

    Reconstructing surfaceScalarFields

        phi

Reconstructing point fields

No point fields

No lagrangian fields

Time = 12.5

Reconstructing FV fields

    Reconstructing volScalarFields

        p

    Reconstructing volVectorFields

        U

    Reconstructing surfaceScalarFields

        phi

Reconstructing point fields

No point fields

No lagrangian fields

Time = 12.6

Reconstructing FV fields

    Reconstructing volScalarFields

        p

    Reconstructing volVectorFields

        U

    Reconstructing surfaceScalarFields

        phi

Reconstructing point fields

No point fields

No lagrangian fields

Time = 12.7

Reconstructing FV fields

    Reconstructing volScalarFields

        p

    Reconstructing volVectorFields

        U

    Reconstructing surfaceScalarFields

        phi

Reconstructing point fields

No point fields

No lagrangian fields

Time = 12.8

Reconstructing FV fields

    Reconstructing volScalarFields

        p

    Reconstructing volVectorFields

        U

    Reconstructing surfaceScalarFields

        phi

Reconstructing point fields

No point fields

No lagrangian fields

Time = 12.9

Reconstructing FV fields

    Reconstructing volScalarFields

        p

    Reconstructing volVectorFields

        U

    Reconstructing surfaceScalarFields

        phi

Reconstructing point fields

No point fields

No lagrangian fields

Time = 13

Reconstructing FV fields

    Reconstructing volScalarFields

        p

    Reconstructing volVectorFields

        U

    Reconstructing surfaceScalarFields

        phi

Reconstructing point fields

No point fields

No lagrangian fields

Time = 13.1

Reconstructing FV fields

    Reconstructing volScalarFields

        p

    Reconstructing volVectorFields

        U

    Reconstructing surfaceScalarFields

        phi

Reconstructing point fields

No point fields

No lagrangian fields

Time = 13.2

Reconstructing FV fields

    Reconstructing volScalarFields

        p

    Reconstructing volVectorFields

        U

    Reconstructing surfaceScalarFields

        phi

Reconstructing point fields

No point fields

No lagrangian fields

Time = 13.3

Reconstructing FV fields

    Reconstructing volScalarFields

        p

    Reconstructing volVectorFields

        U

    Reconstructing surfaceScalarFields

        phi

Reconstructing point fields

No point fields

No lagrangian fields

Time = 13.4

Reconstructing FV fields

    Reconstructing volScalarFields

        p

    Reconstructing volVectorFields

        U

    Reconstructing surfaceScalarFields

        phi

Reconstructing point fields

No point fields

No lagrangian fields

Time = 13.5

Reconstructing FV fields

    Reconstructing volScalarFields

        p

    Reconstructing volVectorFields

        U

    Reconstructing surfaceScalarFields

        phi

Reconstructing point fields

No point fields

No lagrangian fields

Time = 13.6

Reconstructing FV fields

    Reconstructing volScalarFields

        p

    Reconstructing volVectorFields

        U

    Reconstructing surfaceScalarFields

        phi

Reconstructing point fields

No point fields

No lagrangian fields

Time = 13.7

Reconstructing FV fields

    Reconstructing volScalarFields

        p

    Reconstructing volVectorFields

        U

    Reconstructing surfaceScalarFields

        phi

Reconstructing point fields

No point fields

No lagrangian fields

Time = 13.8

Reconstructing FV fields

    Reconstructing volScalarFields

        p

    Reconstructing volVectorFields

        U

    Reconstructing surfaceScalarFields

        phi

Reconstructing point fields

No point fields

No lagrangian fields

Time = 13.9

Reconstructing FV fields

    Reconstructing volScalarFields

        p

    Reconstructing volVectorFields

        U

    Reconstructing surfaceScalarFields

        phi

Reconstructing point fields

No point fields

No lagrangian fields

Time = 14

Reconstructing FV fields

    Reconstructing volScalarFields

        p

    Reconstructing volVectorFields

        U

    Reconstructing surfaceScalarFields

        phi

Reconstructing point fields

No point fields

No lagrangian fields

Time = 14.1

Reconstructing FV fields

    Reconstructing volScalarFields

        p

    Reconstructing volVectorFields

        U

    Reconstructing surfaceScalarFields

        phi

Reconstructing point fields

No point fields

No lagrangian fields

Time = 14.2

Reconstructing FV fields

    Reconstructing volScalarFields

        p

    Reconstructing volVectorFields

        U

    Reconstructing surfaceScalarFields

        phi

Reconstructing point fields

No point fields

No lagrangian fields

Time = 14.3

Reconstructing FV fields

    Reconstructing volScalarFields

        p

    Reconstructing volVectorFields

        U

    Reconstructing surfaceScalarFields

        phi

Reconstructing point fields

No point fields

No lagrangian fields

Time = 14.4

Reconstructing FV fields

    Reconstructing volScalarFields

        p

    Reconstructing volVectorFields

        U

    Reconstructing surfaceScalarFields

        phi

Reconstructing point fields

No point fields

No lagrangian fields

Time = 14.5

Reconstructing FV fields

    Reconstructing volScalarFields

        p

    Reconstructing volVectorFields

        U

    Reconstructing surfaceScalarFields

        phi

Reconstructing point fields

No point fields

No lagrangian fields

Time = 14.6

Reconstructing FV fields

    Reconstructing volScalarFields

        p

    Reconstructing volVectorFields

        U

    Reconstructing surfaceScalarFields

        phi

Reconstructing point fields

No point fields

No lagrangian fields

Time = 14.7

Reconstructing FV fields

    Reconstructing volScalarFields

        p

    Reconstructing volVectorFields

        U

    Reconstructing surfaceScalarFields

        phi

Reconstructing point fields

No point fields

No lagrangian fields

Time = 14.8

Reconstructing FV fields

    Reconstructing volScalarFields

        p

    Reconstructing volVectorFields

        U

    Reconstructing surfaceScalarFields

        phi

Reconstructing point fields

No point fields

No lagrangian fields

Time = 14.9

Reconstructing FV fields

    Reconstructing volScalarFields

        p

    Reconstructing volVectorFields

        U

    Reconstructing surfaceScalarFields

        phi

Reconstructing point fields

No point fields

No lagrangian fields

Time = 15

Reconstructing FV fields

    Reconstructing volScalarFields

        p

    Reconstructing volVectorFields

        U

    Reconstructing surfaceScalarFields

        phi

Reconstructing point fields

No point fields

No lagrangian fields

Time = 15.1

Reconstructing FV fields

    Reconstructing volScalarFields

        p

    Reconstructing volVectorFields

        U

    Reconstructing surfaceScalarFields

        phi

Reconstructing point fields

No point fields

No lagrangian fields

Time = 15.2

Reconstructing FV fields

    Reconstructing volScalarFields

        p

    Reconstructing volVectorFields

        U

    Reconstructing surfaceScalarFields

        phi

Reconstructing point fields

No point fields

No lagrangian fields

Time = 15.3

Reconstructing FV fields

    Reconstructing volScalarFields

        p

    Reconstructing volVectorFields

        U

    Reconstructing surfaceScalarFields

        phi

Reconstructing point fields

No point fields

No lagrangian fields

Time = 15.4

Reconstructing FV fields

    Reconstructing volScalarFields

        p

    Reconstructing volVectorFields

        U

    Reconstructing surfaceScalarFields

        phi

Reconstructing point fields

No point fields

No lagrangian fields

Time = 15.5

Reconstructing FV fields

    Reconstructing volScalarFields

        p

    Reconstructing volVectorFields

        U

    Reconstructing surfaceScalarFields

        phi

Reconstructing point fields

No point fields

No lagrangian fields

Time = 15.6

Reconstructing FV fields

    Reconstructing volScalarFields

        p

    Reconstructing volVectorFields

        U

    Reconstructing surfaceScalarFields

        phi

Reconstructing point fields

No point fields

No lagrangian fields

Time = 15.7

Reconstructing FV fields

    Reconstructing volScalarFields

        p

    Reconstructing volVectorFields

        U

    Reconstructing surfaceScalarFields

        phi

Reconstructing point fields

No point fields

No lagrangian fields

Time = 15.8

Reconstructing FV fields

    Reconstructing volScalarFields

        p

    Reconstructing volVectorFields

        U

    Reconstructing surfaceScalarFields

        phi

Reconstructing point fields

No point fields

No lagrangian fields

Time = 15.9

Reconstructing FV fields

    Reconstructing volScalarFields

        p

    Reconstructing volVectorFields

        U

    Reconstructing surfaceScalarFields

        phi

Reconstructing point fields

No point fields

No lagrangian fields

Time = 16

Reconstructing FV fields

    Reconstructing volScalarFields

        p

    Reconstructing volVectorFields

        U

    Reconstructing surfaceScalarFields

        phi

Reconstructing point fields

No point fields

No lagrangian fields

Time = 16.1

Reconstructing FV fields

    Reconstructing volScalarFields

        p

    Reconstructing volVectorFields

        U

    Reconstructing surfaceScalarFields

        phi

Reconstructing point fields

No point fields

No lagrangian fields

Time = 16.2

Reconstructing FV fields

    Reconstructing volScalarFields

        p

    Reconstructing volVectorFields

        U

    Reconstructing surfaceScalarFields

        phi

Reconstructing point fields

No point fields

No lagrangian fields

Time = 16.3

Reconstructing FV fields

    Reconstructing volScalarFields

        p

    Reconstructing volVectorFields

        U

    Reconstructing surfaceScalarFields

        phi

Reconstructing point fields

No point fields

No lagrangian fields

Time = 16.4

Reconstructing FV fields

    Reconstructing volScalarFields

        p

    Reconstructing volVectorFields

        U

    Reconstructing surfaceScalarFields

        phi

Reconstructing point fields

No point fields

No lagrangian fields

Time = 16.5

Reconstructing FV fields

    Reconstructing volScalarFields

        p

    Reconstructing volVectorFields

        U

    Reconstructing surfaceScalarFields

        phi

Reconstructing point fields

No point fields

No lagrangian fields

Time = 16.6

Reconstructing FV fields

    Reconstructing volScalarFields

        p

    Reconstructing volVectorFields

        U

    Reconstructing surfaceScalarFields

        phi

Reconstructing point fields

No point fields

No lagrangian fields

Time = 16.7

Reconstructing FV fields

    Reconstructing volScalarFields

        p

    Reconstructing volVectorFields

        U

    Reconstructing surfaceScalarFields

        phi

Reconstructing point fields

No point fields

No lagrangian fields

Time = 16.8

Reconstructing FV fields

    Reconstructing volScalarFields

        p

    Reconstructing volVectorFields

        U

    Reconstructing surfaceScalarFields

        phi

Reconstructing point fields

No point fields

No lagrangian fields

Time = 16.9

Reconstructing FV fields

    Reconstructing volScalarFields

        p

    Reconstructing volVectorFields

        U

    Reconstructing surfaceScalarFields

        phi

Reconstructing point fields

No point fields

No lagrangian fields

Time = 17

Reconstructing FV fields

    Reconstructing volScalarFields

        p

    Reconstructing volVectorFields

        U

    Reconstructing surfaceScalarFields

        phi

Reconstructing point fields

No point fields

No lagrangian fields

Time = 17.1

Reconstructing FV fields

    Reconstructing volScalarFields

        p

    Reconstructing volVectorFields

        U

    Reconstructing surfaceScalarFields

        phi

Reconstructing point fields

No point fields

No lagrangian fields

Time = 17.2

Reconstructing FV fields

    Reconstructing volScalarFields

        p

    Reconstructing volVectorFields

        U

    Reconstructing surfaceScalarFields

        phi

Reconstructing point fields

No point fields

No lagrangian fields

Time = 17.3

Reconstructing FV fields

    Reconstructing volScalarFields

        p

    Reconstructing volVectorFields

        U

    Reconstructing surfaceScalarFields

        phi

Reconstructing point fields

No point fields

No lagrangian fields

Time = 17.4

Reconstructing FV fields

    Reconstructing volScalarFields

        p

    Reconstructing volVectorFields

        U

    Reconstructing surfaceScalarFields

        phi

Reconstructing point fields

No point fields

No lagrangian fields

Time = 17.5

Reconstructing FV fields

    Reconstructing volScalarFields

        p

    Reconstructing volVectorFields

        U

    Reconstructing surfaceScalarFields

        phi

Reconstructing point fields

No point fields

No lagrangian fields

Time = 17.6

Reconstructing FV fields

    Reconstructing volScalarFields

        p

    Reconstructing volVectorFields

        U

    Reconstructing surfaceScalarFields

        phi

Reconstructing point fields

No point fields

No lagrangian fields

Time = 17.7

Reconstructing FV fields

    Reconstructing volScalarFields

        p

    Reconstructing volVectorFields

        U

    Reconstructing surfaceScalarFields

        phi

Reconstructing point fields

No point fields

No lagrangian fields

Time = 17.8

Reconstructing FV fields

    Reconstructing volScalarFields

        p

    Reconstructing volVectorFields

        U

    Reconstructing surfaceScalarFields

        phi

Reconstructing point fields

No point fields

No lagrangian fields

Time = 17.9

Reconstructing FV fields

    Reconstructing volScalarFields

        p

    Reconstructing volVectorFields

        U

    Reconstructing surfaceScalarFields

        phi

Reconstructing point fields

No point fields

No lagrangian fields

Time = 18

Reconstructing FV fields

    Reconstructing volScalarFields

        p

    Reconstructing volVectorFields

        U

    Reconstructing surfaceScalarFields

        phi

Reconstructing point fields

No point fields

No lagrangian fields

Time = 18.1

Reconstructing FV fields

    Reconstructing volScalarFields

        p

    Reconstructing volVectorFields

        U

    Reconstructing surfaceScalarFields

        phi

Reconstructing point fields

No point fields

No lagrangian fields

Time = 18.2

Reconstructing FV fields

    Reconstructing volScalarFields

        p

    Reconstructing volVectorFields

        U

    Reconstructing surfaceScalarFields

        phi

Reconstructing point fields

No point fields

No lagrangian fields

Time = 18.3

Reconstructing FV fields

    Reconstructing volScalarFields

        p

    Reconstructing volVectorFields

        U

    Reconstructing surfaceScalarFields

        phi

Reconstructing point fields

No point fields

No lagrangian fields

Time = 18.4

Reconstructing FV fields

    Reconstructing volScalarFields

        p

    Reconstructing volVectorFields

        U

    Reconstructing surfaceScalarFields

        phi

Reconstructing point fields

No point fields

No lagrangian fields

Time = 18.5

Reconstructing FV fields

    Reconstructing volScalarFields

        p

    Reconstructing volVectorFields

        U

    Reconstructing surfaceScalarFields

        phi

Reconstructing point fields

No point fields

No lagrangian fields

Time = 18.6

Reconstructing FV fields

    Reconstructing volScalarFields

        p

    Reconstructing volVectorFields

        U

    Reconstructing surfaceScalarFields

        phi

Reconstructing point fields

No point fields

No lagrangian fields

Time = 18.7

Reconstructing FV fields

    Reconstructing volScalarFields

        p

    Reconstructing volVectorFields

        U

    Reconstructing surfaceScalarFields

        phi

Reconstructing point fields

No point fields

No lagrangian fields

Time = 18.8

Reconstructing FV fields

    Reconstructing volScalarFields

        p

    Reconstructing volVectorFields

        U

    Reconstructing surfaceScalarFields

        phi

Reconstructing point fields

No point fields

No lagrangian fields

Time = 18.9

Reconstructing FV fields

    Reconstructing volScalarFields

        p

    Reconstructing volVectorFields

        U

    Reconstructing surfaceScalarFields

        phi

Reconstructing point fields

No point fields

No lagrangian fields

Time = 19

Reconstructing FV fields

    Reconstructing volScalarFields

        p

    Reconstructing volVectorFields

        U

    Reconstructing surfaceScalarFields

        phi

Reconstructing point fields

No point fields

No lagrangian fields

Time = 19.1

Reconstructing FV fields

    Reconstructing volScalarFields

        p

    Reconstructing volVectorFields

        U

    Reconstructing surfaceScalarFields

        phi

Reconstructing point fields

No point fields

No lagrangian fields

Time = 19.2

Reconstructing FV fields

    Reconstructing volScalarFields

        p

    Reconstructing volVectorFields

        U

    Reconstructing surfaceScalarFields

        phi

Reconstructing point fields

No point fields

No lagrangian fields

Time = 19.3

Reconstructing FV fields

    Reconstructing volScalarFields

        p

    Reconstructing volVectorFields

        U

    Reconstructing surfaceScalarFields

        phi

Reconstructing point fields

No point fields

No lagrangian fields

Time = 19.4

Reconstructing FV fields

    Reconstructing volScalarFields

        p

    Reconstructing volVectorFields

        U

    Reconstructing surfaceScalarFields

        phi

Reconstructing point fields

No point fields

No lagrangian fields

Time = 19.5

Reconstructing FV fields

    Reconstructing volScalarFields

        p

    Reconstructing volVectorFields

        U

    Reconstructing surfaceScalarFields

        phi

Reconstructing point fields

No point fields

No lagrangian fields

Time = 19.6

Reconstructing FV fields

    Reconstructing volScalarFields

        p

    Reconstructing volVectorFields

        U

    Reconstructing surfaceScalarFields

        phi

Reconstructing point fields

No point fields

No lagrangian fields

Time = 19.7

Reconstructing FV fields

    Reconstructing volScalarFields

        p

    Reconstructing volVectorFields

        U

    Reconstructing surfaceScalarFields

        phi

Reconstructing point fields

No point fields

No lagrangian fields

Time = 19.8

Reconstructing FV fields

    Reconstructing volScalarFields

        p

    Reconstructing volVectorFields

        U

    Reconstructing surfaceScalarFields

        phi

Reconstructing point fields

No point fields

No lagrangian fields

Time = 19.9

Reconstructing FV fields

    Reconstructing volScalarFields

        p

    Reconstructing volVectorFields

        U

    Reconstructing surfaceScalarFields

        phi

Reconstructing point fields

No point fields

No lagrangian fields

Time = 20

Reconstructing FV fields

    Reconstructing volScalarFields

        p

    Reconstructing volVectorFields

        U

    Reconstructing surfaceScalarFields

        phi

Reconstructing point fields

No point fields

No lagrangian fields

Time = 20.1

Reconstructing FV fields

    Reconstructing volScalarFields

        p

    Reconstructing volVectorFields

        U

    Reconstructing surfaceScalarFields

        phi

Reconstructing point fields

No point fields

No lagrangian fields

Time = 20.2

Reconstructing FV fields

    Reconstructing volScalarFields

        p

    Reconstructing volVectorFields

        U

    Reconstructing surfaceScalarFields

        phi

Reconstructing point fields

No point fields

No lagrangian fields

Time = 20.3

Reconstructing FV fields

    Reconstructing volScalarFields

        p

    Reconstructing volVectorFields

        U

    Reconstructing surfaceScalarFields

        phi

Reconstructing point fields

No point fields

No lagrangian fields

Time = 20.4

Reconstructing FV fields

    Reconstructing volScalarFields

        p

    Reconstructing volVectorFields

        U

    Reconstructing surfaceScalarFields

        phi

Reconstructing point fields

No point fields

No lagrangian fields

Time = 20.5

Reconstructing FV fields

    Reconstructing volScalarFields

        p

    Reconstructing volVectorFields

        U

    Reconstructing surfaceScalarFields

        phi

Reconstructing point fields

No point fields

No lagrangian fields

Time = 20.6

Reconstructing FV fields

    Reconstructing volScalarFields

        p

    Reconstructing volVectorFields

        U

    Reconstructing surfaceScalarFields

        phi

Reconstructing point fields

No point fields

No lagrangian fields

Time = 20.7

Reconstructing FV fields

    Reconstructing volScalarFields

        p

    Reconstructing volVectorFields

        U

    Reconstructing surfaceScalarFields

        phi

Reconstructing point fields

No point fields

No lagrangian fields

Time = 20.8

Reconstructing FV fields

    Reconstructing volScalarFields

        p

    Reconstructing volVectorFields

        U

    Reconstructing surfaceScalarFields

        phi

Reconstructing point fields

No point fields

No lagrangian fields

Time = 20.9

Reconstructing FV fields

    Reconstructing volScalarFields

        p

    Reconstructing volVectorFields

        U

    Reconstructing surfaceScalarFields

        phi

Reconstructing point fields

No point fields

No lagrangian fields

Time = 21

Reconstructing FV fields

    Reconstructing volScalarFields

        p

    Reconstructing volVectorFields

        U

    Reconstructing surfaceScalarFields

        phi

Reconstructing point fields

No point fields

No lagrangian fields

Time = 21.1

Reconstructing FV fields

    Reconstructing volScalarFields

        p

    Reconstructing volVectorFields

        U

    Reconstructing surfaceScalarFields

        phi

Reconstructing point fields

No point fields

No lagrangian fields

Time = 21.2

Reconstructing FV fields

    Reconstructing volScalarFields

        p

    Reconstructing volVectorFields

        U

    Reconstructing surfaceScalarFields

        phi

Reconstructing point fields

No point fields

No lagrangian fields

Time = 21.3

Reconstructing FV fields

    Reconstructing volScalarFields

        p

    Reconstructing volVectorFields

        U

    Reconstructing surfaceScalarFields

        phi

Reconstructing point fields

No point fields

No lagrangian fields

Time = 21.4

Reconstructing FV fields

    Reconstructing volScalarFields

        p

    Reconstructing volVectorFields

        U

    Reconstructing surfaceScalarFields

        phi

Reconstructing point fields

No point fields

No lagrangian fields

Time = 21.5

Reconstructing FV fields

    Reconstructing volScalarFields

        p

    Reconstructing volVectorFields

        U

    Reconstructing surfaceScalarFields

        phi

Reconstructing point fields

No point fields

No lagrangian fields

Time = 21.6

Reconstructing FV fields

    Reconstructing volScalarFields

        p

    Reconstructing volVectorFields

        U

    Reconstructing surfaceScalarFields

        phi

Reconstructing point fields

No point fields

No lagrangian fields

Time = 21.7

Reconstructing FV fields

    Reconstructing volScalarFields

        p

    Reconstructing volVectorFields

        U

    Reconstructing surfaceScalarFields

        phi

Reconstructing point fields

No point fields

No lagrangian fields

Time = 21.8

Reconstructing FV fields

    Reconstructing volScalarFields

        p

    Reconstructing volVectorFields

        U

    Reconstructing surfaceScalarFields

        phi

Reconstructing point fields

No point fields

No lagrangian fields

Time = 21.9

Reconstructing FV fields

    Reconstructing volScalarFields

        p

    Reconstructing volVectorFields

        U

    Reconstructing surfaceScalarFields

        phi

Reconstructing point fields

No point fields

No lagrangian fields

Time = 22

Reconstructing FV fields

    Reconstructing volScalarFields

        p

    Reconstructing volVectorFields

        U

    Reconstructing surfaceScalarFields

        phi

Reconstructing point fields

No point fields

No lagrangian fields

Time = 22.1

Reconstructing FV fields

    Reconstructing volScalarFields

        p

    Reconstructing volVectorFields

        U

    Reconstructing surfaceScalarFields

        phi

Reconstructing point fields

No point fields

No lagrangian fields

Time = 22.2

Reconstructing FV fields

    Reconstructing volScalarFields

        p

    Reconstructing volVectorFields

        U

    Reconstructing surfaceScalarFields

        phi

Reconstructing point fields

No point fields

No lagrangian fields

Time = 22.3

Reconstructing FV fields

    Reconstructing volScalarFields

        p

    Reconstructing volVectorFields

        U

    Reconstructing surfaceScalarFields

        phi

Reconstructing point fields

No point fields

No lagrangian fields

Time = 22.4

Reconstructing FV fields

    Reconstructing volScalarFields

        p

    Reconstructing volVectorFields

        U

    Reconstructing surfaceScalarFields

        phi

Reconstructing point fields

No point fields

No lagrangian fields

Time = 22.5

Reconstructing FV fields

    Reconstructing volScalarFields

        p

    Reconstructing volVectorFields

        U

    Reconstructing surfaceScalarFields

        phi

Reconstructing point fields

No point fields

No lagrangian fields

Time = 22.6

Reconstructing FV fields

    Reconstructing volScalarFields

        p

    Reconstructing volVectorFields

        U

    Reconstructing surfaceScalarFields

        phi

Reconstructing point fields

No point fields

No lagrangian fields

Time = 22.7

Reconstructing FV fields

    Reconstructing volScalarFields

        p

    Reconstructing volVectorFields

        U

    Reconstructing surfaceScalarFields

        phi

Reconstructing point fields

No point fields

No lagrangian fields

Time = 22.8

Reconstructing FV fields

    Reconstructing volScalarFields

        p

    Reconstructing volVectorFields

        U

    Reconstructing surfaceScalarFields

        phi

Reconstructing point fields

No point fields

No lagrangian fields

Time = 22.9

Reconstructing FV fields

    Reconstructing volScalarFields

        p

    Reconstructing volVectorFields

        U

    Reconstructing surfaceScalarFields

        phi

Reconstructing point fields

No point fields

No lagrangian fields

Time = 23

Reconstructing FV fields

    Reconstructing volScalarFields

        p

    Reconstructing volVectorFields

        U

    Reconstructing surfaceScalarFields

        phi

Reconstructing point fields

No point fields

No lagrangian fields

Time = 23.1

Reconstructing FV fields

    Reconstructing volScalarFields

        p

    Reconstructing volVectorFields

        U

    Reconstructing surfaceScalarFields

        phi

Reconstructing point fields

No point fields

No lagrangian fields

Time = 23.2

Reconstructing FV fields

    Reconstructing volScalarFields

        p

    Reconstructing volVectorFields

        U

    Reconstructing surfaceScalarFields

        phi

Reconstructing point fields

No point fields

No lagrangian fields

Time = 23.3

Reconstructing FV fields

    Reconstructing volScalarFields

        p

    Reconstructing volVectorFields

        U

    Reconstructing surfaceScalarFields

        phi

Reconstructing point fields

No point fields

No lagrangian fields

Time = 23.4

Reconstructing FV fields

    Reconstructing volScalarFields

        p

    Reconstructing volVectorFields

        U

    Reconstructing surfaceScalarFields

        phi

Reconstructing point fields

No point fields

No lagrangian fields

Time = 23.5

Reconstructing FV fields

    Reconstructing volScalarFields

        p

    Reconstructing volVectorFields

        U

    Reconstructing surfaceScalarFields

        phi

Reconstructing point fields

No point fields

No lagrangian fields

Time = 23.6

Reconstructing FV fields

    Reconstructing volScalarFields

        p

    Reconstructing volVectorFields

        U

    Reconstructing surfaceScalarFields

        phi

Reconstructing point fields

No point fields

No lagrangian fields

Time = 23.7

Reconstructing FV fields

    Reconstructing volScalarFields

        p

    Reconstructing volVectorFields

        U

    Reconstructing surfaceScalarFields

        phi

Reconstructing point fields

No point fields

No lagrangian fields

Time = 23.8

Reconstructing FV fields

    Reconstructing volScalarFields

        p

    Reconstructing volVectorFields

        U

    Reconstructing surfaceScalarFields

        phi

Reconstructing point fields

No point fields

No lagrangian fields

Time = 23.9

Reconstructing FV fields

    Reconstructing volScalarFields

        p

    Reconstructing volVectorFields

        U

    Reconstructing surfaceScalarFields

        phi

Reconstructing point fields

No point fields

No lagrangian fields

Time = 24

Reconstructing FV fields

    Reconstructing volScalarFields

        p

    Reconstructing volVectorFields

        U

    Reconstructing surfaceScalarFields

        phi

Reconstructing point fields

No point fields

No lagrangian fields

Time = 24.1

Reconstructing FV fields

    Reconstructing volScalarFields

        p

    Reconstructing volVectorFields

        U

    Reconstructing surfaceScalarFields

        phi

Reconstructing point fields

No point fields

No lagrangian fields

Time = 24.2

Reconstructing FV fields

    Reconstructing volScalarFields

        p

    Reconstructing volVectorFields

        U

    Reconstructing surfaceScalarFields

        phi

Reconstructing point fields

No point fields

No lagrangian fields

Time = 24.3

Reconstructing FV fields

    Reconstructing volScalarFields

        p

    Reconstructing volVectorFields

        U

    Reconstructing surfaceScalarFields

        phi

Reconstructing point fields

No point fields

No lagrangian fields

Time = 24.4

Reconstructing FV fields

    Reconstructing volScalarFields

        p

    Reconstructing volVectorFields

        U

    Reconstructing surfaceScalarFields

        phi

Reconstructing point fields

No point fields

No lagrangian fields

Time = 24.5

Reconstructing FV fields

    Reconstructing volScalarFields

        p

    Reconstructing volVectorFields

        U

    Reconstructing surfaceScalarFields

        phi

Reconstructing point fields

No point fields

No lagrangian fields

Time = 24.6

Reconstructing FV fields

    Reconstructing volScalarFields

        p

    Reconstructing volVectorFields

        U

    Reconstructing surfaceScalarFields

        phi

Reconstructing point fields

No point fields

No lagrangian fields

Time = 24.7

Reconstructing FV fields

    Reconstructing volScalarFields

        p

    Reconstructing volVectorFields

        U

    Reconstructing surfaceScalarFields

        phi

Reconstructing point fields

No point fields

No lagrangian fields

Time = 24.8

Reconstructing FV fields

    Reconstructing volScalarFields

        p

    Reconstructing volVectorFields

        U

    Reconstructing surfaceScalarFields

        phi

Reconstructing point fields

No point fields

No lagrangian fields

Time = 24.9

Reconstructing FV fields

    Reconstructing volScalarFields

        p

    Reconstructing volVectorFields

        U

    Reconstructing surfaceScalarFields

        phi

Reconstructing point fields

No point fields

No lagrangian fields

Time = 25

Reconstructing FV fields

    Reconstructing volScalarFields

        p

    Reconstructing volVectorFields

        U

    Reconstructing surfaceScalarFields

        phi

Reconstructing point fields

No point fields

No lagrangian fields

Time = 25.1

Reconstructing FV fields

    Reconstructing volScalarFields

        p

    Reconstructing volVectorFields

        U

    Reconstructing surfaceScalarFields

        phi

Reconstructing point fields

No point fields

No lagrangian fields

Time = 25.2

Reconstructing FV fields

    Reconstructing volScalarFields

        p

    Reconstructing volVectorFields

        U

    Reconstructing surfaceScalarFields

        phi

Reconstructing point fields

No point fields

No lagrangian fields

Time = 25.3

Reconstructing FV fields

    Reconstructing volScalarFields

        p

    Reconstructing volVectorFields

        U

    Reconstructing surfaceScalarFields

        phi

Reconstructing point fields

No point fields

No lagrangian fields

Time = 25.4

Reconstructing FV fields

    Reconstructing volScalarFields

        p

    Reconstructing volVectorFields

        U

    Reconstructing surfaceScalarFields

        phi

Reconstructing point fields

No point fields

No lagrangian fields

Time = 25.5

Reconstructing FV fields

    Reconstructing volScalarFields

        p

    Reconstructing volVectorFields

        U

    Reconstructing surfaceScalarFields

        phi

Reconstructing point fields

No point fields

No lagrangian fields

Time = 25.6

Reconstructing FV fields

    Reconstructing volScalarFields

        p

    Reconstructing volVectorFields

        U

    Reconstructing surfaceScalarFields

        phi

Reconstructing point fields

No point fields

No lagrangian fields

Time = 25.7

Reconstructing FV fields

    Reconstructing volScalarFields

        p

    Reconstructing volVectorFields

        U

    Reconstructing surfaceScalarFields

        phi

Reconstructing point fields

No point fields

No lagrangian fields

Time = 25.8

Reconstructing FV fields

    Reconstructing volScalarFields

        p

    Reconstructing volVectorFields

        U

    Reconstructing surfaceScalarFields

        phi

Reconstructing point fields

No point fields

No lagrangian fields

Time = 25.9

Reconstructing FV fields

    Reconstructing volScalarFields

        p

    Reconstructing volVectorFields

        U

    Reconstructing surfaceScalarFields

        phi

Reconstructing point fields

No point fields

No lagrangian fields

Time = 26

Reconstructing FV fields

    Reconstructing volScalarFields

        p

    Reconstructing volVectorFields

        U

    Reconstructing surfaceScalarFields

        phi

Reconstructing point fields

No point fields

No lagrangian fields

Time = 26.1

Reconstructing FV fields

    Reconstructing volScalarFields

        p

    Reconstructing volVectorFields

        U

    Reconstructing surfaceScalarFields

        phi

Reconstructing point fields

No point fields

No lagrangian fields

Time = 26.2

Reconstructing FV fields

    Reconstructing volScalarFields

        p

    Reconstructing volVectorFields

        U

    Reconstructing surfaceScalarFields

        phi

Reconstructing point fields

No point fields

No lagrangian fields

Time = 26.3

Reconstructing FV fields

    Reconstructing volScalarFields

        p

    Reconstructing volVectorFields

        U

    Reconstructing surfaceScalarFields

        phi

Reconstructing point fields

No point fields

No lagrangian fields

Time = 26.4

Reconstructing FV fields

    Reconstructing volScalarFields

        p

    Reconstructing volVectorFields

        U

    Reconstructing surfaceScalarFields

        phi

Reconstructing point fields

No point fields

No lagrangian fields

Time = 26.5

Reconstructing FV fields

    Reconstructing volScalarFields

        p

    Reconstructing volVectorFields

        U

    Reconstructing surfaceScalarFields

        phi

Reconstructing point fields

No point fields

No lagrangian fields

Time = 26.6

Reconstructing FV fields

    Reconstructing volScalarFields

        p

    Reconstructing volVectorFields

        U

    Reconstructing surfaceScalarFields

        phi

Reconstructing point fields

No point fields

No lagrangian fields

Time = 26.7

Reconstructing FV fields

    Reconstructing volScalarFields

        p

    Reconstructing volVectorFields

        U

    Reconstructing surfaceScalarFields

        phi

Reconstructing point fields

No point fields

No lagrangian fields

Time = 26.8

Reconstructing FV fields

    Reconstructing volScalarFields

        p

    Reconstructing volVectorFields

        U

    Reconstructing surfaceScalarFields

        phi

Reconstructing point fields

No point fields

No lagrangian fields

Time = 26.9

Reconstructing FV fields

    Reconstructing volScalarFields

        p

    Reconstructing volVectorFields

        U

    Reconstructing surfaceScalarFields

        phi

Reconstructing point fields

No point fields

No lagrangian fields

Time = 27

Reconstructing FV fields

    Reconstructing volScalarFields

        p

    Reconstructing volVectorFields

        U

    Reconstructing surfaceScalarFields

        phi

Reconstructing point fields

No point fields

No lagrangian fields

Time = 27.1

Reconstructing FV fields

    Reconstructing volScalarFields

        p

    Reconstructing volVectorFields

        U

    Reconstructing surfaceScalarFields

        phi

Reconstructing point fields

No point fields

No lagrangian fields

Time = 27.2

Reconstructing FV fields

    Reconstructing volScalarFields

        p

    Reconstructing volVectorFields

        U

    Reconstructing surfaceScalarFields

        phi

Reconstructing point fields

No point fields

No lagrangian fields

Time = 27.3

Reconstructing FV fields

    Reconstructing volScalarFields

        p

    Reconstructing volVectorFields

        U

    Reconstructing surfaceScalarFields

        phi

Reconstructing point fields

No point fields

No lagrangian fields

Time = 27.4

Reconstructing FV fields

    Reconstructing volScalarFields

        p

    Reconstructing volVectorFields

        U

    Reconstructing surfaceScalarFields

        phi

Reconstructing point fields

No point fields

No lagrangian fields

Time = 27.5

Reconstructing FV fields

    Reconstructing volScalarFields

        p

    Reconstructing volVectorFields

        U

    Reconstructing surfaceScalarFields

        phi

Reconstructing point fields

No point fields

No lagrangian fields

Time = 27.6

Reconstructing FV fields

    Reconstructing volScalarFields

        p

    Reconstructing volVectorFields

        U

    Reconstructing surfaceScalarFields

        phi

Reconstructing point fields

No point fields

No lagrangian fields

Time = 27.7

Reconstructing FV fields

    Reconstructing volScalarFields

        p

    Reconstructing volVectorFields

        U

    Reconstructing surfaceScalarFields

        phi

Reconstructing point fields

No point fields

No lagrangian fields

Time = 27.8

Reconstructing FV fields

    Reconstructing volScalarFields

        p

    Reconstructing volVectorFields

        U

    Reconstructing surfaceScalarFields

        phi

Reconstructing point fields

No point fields

No lagrangian fields

Time = 27.9

Reconstructing FV fields

    Reconstructing volScalarFields

        p

    Reconstructing volVectorFields

        U

    Reconstructing surfaceScalarFields

        phi

Reconstructing point fields

No point fields

No lagrangian fields

Time = 28

Reconstructing FV fields

    Reconstructing volScalarFields

        p

    Reconstructing volVectorFields

        U

    Reconstructing surfaceScalarFields

        phi

Reconstructing point fields

No point fields

No lagrangian fields

Time = 28.1

Reconstructing FV fields

    Reconstructing volScalarFields

        p

    Reconstructing volVectorFields

        U

    Reconstructing surfaceScalarFields

        phi

Reconstructing point fields

No point fields

No lagrangian fields

Time = 28.2

Reconstructing FV fields

    Reconstructing volScalarFields

        p

    Reconstructing volVectorFields

        U

    Reconstructing surfaceScalarFields

        phi

Reconstructing point fields

No point fields

No lagrangian fields

Time = 28.3

Reconstructing FV fields

    Reconstructing volScalarFields

        p

    Reconstructing volVectorFields

        U

    Reconstructing surfaceScalarFields

        phi

Reconstructing point fields

No point fields

No lagrangian fields

Time = 28.4

Reconstructing FV fields

    Reconstructing volScalarFields

        p

    Reconstructing volVectorFields

        U

    Reconstructing surfaceScalarFields

        phi

Reconstructing point fields

No point fields

No lagrangian fields

Time = 28.5

Reconstructing FV fields

    Reconstructing volScalarFields

        p

    Reconstructing volVectorFields

        U

    Reconstructing surfaceScalarFields

        phi

Reconstructing point fields

No point fields

No lagrangian fields

Time = 28.6

Reconstructing FV fields

    Reconstructing volScalarFields

        p

    Reconstructing volVectorFields

        U

    Reconstructing surfaceScalarFields

        phi

Reconstructing point fields

No point fields

No lagrangian fields

Time = 28.7

Reconstructing FV fields

    Reconstructing volScalarFields

        p

    Reconstructing volVectorFields

        U

    Reconstructing surfaceScalarFields

        phi

Reconstructing point fields

No point fields

No lagrangian fields

Time = 28.8

Reconstructing FV fields

    Reconstructing volScalarFields

        p

    Reconstructing volVectorFields

        U

    Reconstructing surfaceScalarFields

        phi

Reconstructing point fields

No point fields

No lagrangian fields

Time = 28.9

Reconstructing FV fields

    Reconstructing volScalarFields

        p

    Reconstructing volVectorFields

        U

    Reconstructing surfaceScalarFields

        phi

Reconstructing point fields

No point fields

No lagrangian fields

Time = 29

Reconstructing FV fields

    Reconstructing volScalarFields

        p

    Reconstructing volVectorFields

        U

    Reconstructing surfaceScalarFields

        phi

Reconstructing point fields

No point fields

No lagrangian fields

Time = 29.1

Reconstructing FV fields

    Reconstructing volScalarFields

        p

    Reconstructing volVectorFields

        U

    Reconstructing surfaceScalarFields

        phi

Reconstructing point fields

No point fields

No lagrangian fields

Time = 29.2

Reconstructing FV fields

    Reconstructing volScalarFields

        p

    Reconstructing volVectorFields

        U

    Reconstructing surfaceScalarFields

        phi

Reconstructing point fields

No point fields

No lagrangian fields

Time = 29.3

Reconstructing FV fields

    Reconstructing volScalarFields

        p

    Reconstructing volVectorFields

        U

    Reconstructing surfaceScalarFields

        phi

Reconstructing point fields

No point fields

No lagrangian fields

Time = 29.4

Reconstructing FV fields

    Reconstructing volScalarFields

        p

    Reconstructing volVectorFields

        U

    Reconstructing surfaceScalarFields

        phi

Reconstructing point fields

No point fields

No lagrangian fields

Time = 29.5

Reconstructing FV fields

    Reconstructing volScalarFields

        p

    Reconstructing volVectorFields

        U

    Reconstructing surfaceScalarFields

        phi

Reconstructing point fields

No point fields

No lagrangian fields

Time = 29.6

Reconstructing FV fields

    Reconstructing volScalarFields

        p

    Reconstructing volVectorFields

        U

    Reconstructing surfaceScalarFields

        phi

Reconstructing point fields

No point fields

No lagrangian fields

Time = 29.7

Reconstructing FV fields

    Reconstructing volScalarFields

        p

    Reconstructing volVectorFields

        U

    Reconstructing surfaceScalarFields

        phi

Reconstructing point fields

No point fields

No lagrangian fields

Time = 29.8

Reconstructing FV fields

    Reconstructing volScalarFields

        p

    Reconstructing volVectorFields

        U

    Reconstructing surfaceScalarFields

        phi

Reconstructing point fields

No point fields

No lagrangian fields

Time = 29.9

Reconstructing FV fields

    Reconstructing volScalarFields

        p

    Reconstructing volVectorFields

        U

    Reconstructing surfaceScalarFields

        phi

Reconstructing point fields

No point fields

No lagrangian fields

Time = 30

Reconstructing FV fields

    Reconstructing volScalarFields

        p

    Reconstructing volVectorFields

        U

    Reconstructing surfaceScalarFields

        phi

Reconstructing point fields

No point fields

No lagrangian fields

Time = 30.1

Reconstructing FV fields

    Reconstructing volScalarFields

        p

    Reconstructing volVectorFields

        U

    Reconstructing surfaceScalarFields

        phi

Reconstructing point fields

No point fields

No lagrangian fields

Time = 30.2

Reconstructing FV fields

    Reconstructing volScalarFields

        p

    Reconstructing volVectorFields

        U

    Reconstructing surfaceScalarFields

        phi

Reconstructing point fields

No point fields

No lagrangian fields

Time = 30.3

Reconstructing FV fields

    Reconstructing volScalarFields

        p

    Reconstructing volVectorFields

        U

    Reconstructing surfaceScalarFields

        phi

Reconstructing point fields

No point fields

No lagrangian fields

Time = 30.4

Reconstructing FV fields

    Reconstructing volScalarFields

        p

    Reconstructing volVectorFields

        U

    Reconstructing surfaceScalarFields

        phi

Reconstructing point fields

No point fields

No lagrangian fields

Time = 30.5

Reconstructing FV fields

    Reconstructing volScalarFields

        p

    Reconstructing volVectorFields

        U

    Reconstructing surfaceScalarFields

        phi

Reconstructing point fields

No point fields

No lagrangian fields

Time = 30.6

Reconstructing FV fields

    Reconstructing volScalarFields

        p

    Reconstructing volVectorFields

        U

    Reconstructing surfaceScalarFields

        phi

Reconstructing point fields

No point fields

No lagrangian fields

Time = 30.7

Reconstructing FV fields

    Reconstructing volScalarFields

        p

    Reconstructing volVectorFields

        U

    Reconstructing surfaceScalarFields

        phi

Reconstructing point fields

No point fields

No lagrangian fields

Time = 30.8

Reconstructing FV fields

    Reconstructing volScalarFields

        p

    Reconstructing volVectorFields

        U

    Reconstructing surfaceScalarFields

        phi

Reconstructing point fields

No point fields

No lagrangian fields

Time = 30.9

Reconstructing FV fields

    Reconstructing volScalarFields

        p

    Reconstructing volVectorFields

        U

    Reconstructing surfaceScalarFields

        phi

Reconstructing point fields

No point fields

No lagrangian fields

Time = 31

Reconstructing FV fields

    Reconstructing volScalarFields

        p

    Reconstructing volVectorFields

        U

    Reconstructing surfaceScalarFields

        phi

Reconstructing point fields

No point fields

No lagrangian fields

Time = 31.1

Reconstructing FV fields

    Reconstructing volScalarFields

        p

    Reconstructing volVectorFields

        U

    Reconstructing surfaceScalarFields

        phi

Reconstructing point fields

No point fields

No lagrangian fields

Time = 31.2

Reconstructing FV fields

    Reconstructing volScalarFields

        p

    Reconstructing volVectorFields

        U

[...]

        p

    Reconstructing volVectorFields

        U

    Reconstructing surfaceScalarFields

        phi

Reconstructing point fields

No point fields

No lagrangian fields

Time = 42.5

Reconstructing FV fields

    Reconstructing volScalarFields

        p

    Reconstructing volVectorFields

        U

    Reconstructing surfaceScalarFields

        phi

Reconstructing point fields

No point fields

No lagrangian fields

Time = 42.6

Reconstructing FV fields

    Reconstructing volScalarFields

        p

    Reconstructing volVectorFields

        U

    Reconstructing surfaceScalarFields

        phi

Reconstructing point fields

No point fields

No lagrangian fields

Time = 42.7

Reconstructing FV fields

    Reconstructing volScalarFields

        p

    Reconstructing volVectorFields

        U

    Reconstructing surfaceScalarFields

        phi

Reconstructing point fields

No point fields

No lagrangian fields

Time = 42.8

Reconstructing FV fields

    Reconstructing volScalarFields

        p

    Reconstructing volVectorFields

        U

    Reconstructing surfaceScalarFields

        phi

Reconstructing point fields

No point fields

No lagrangian fields

Time = 42.9

Reconstructing FV fields

    Reconstructing volScalarFields

        p

    Reconstructing volVectorFields

        U

    Reconstructing surfaceScalarFields

        phi

Reconstructing point fields

No point fields

No lagrangian fields

Time = 43

Reconstructing FV fields

    Reconstructing volScalarFields

        p

    Reconstructing volVectorFields

        U

    Reconstructing surfaceScalarFields

        phi

Reconstructing point fields

No point fields

No lagrangian fields

Time = 43.1

Reconstructing FV fields

    Reconstructing volScalarFields

        p

    Reconstructing volVectorFields

        U

    Reconstructing surfaceScalarFields

        phi

Reconstructing point fields

No point fields

No lagrangian fields

Time = 43.2

Reconstructing FV fields

    Reconstructing volScalarFields

        p

    Reconstructing volVectorFields

        U

    Reconstructing surfaceScalarFields

        phi

Reconstructing point fields

No point fields

No lagrangian fields

Time = 43.3

Reconstructing FV fields

    Reconstructing volScalarFields

        p

    Reconstructing volVectorFields

        U

    Reconstructing surfaceScalarFields

        phi

Reconstructing point fields

No point fields

No lagrangian fields

Time = 43.4

Reconstructing FV fields

    Reconstructing volScalarFields

        p

    Reconstructing volVectorFields

        U

    Reconstructing surfaceScalarFields

        phi

Reconstructing point fields

No point fields

No lagrangian fields

Time = 43.5

Reconstructing FV fields

    Reconstructing volScalarFields

        p

    Reconstructing volVectorFields

        U

    Reconstructing surfaceScalarFields

        phi

Reconstructing point fields

No point fields

No lagrangian fields

Time = 43.6

Reconstructing FV fields

    Reconstructing volScalarFields

        p

    Reconstructing volVectorFields

        U

    Reconstructing surfaceScalarFields

        phi

Reconstructing point fields

No point fields

No lagrangian fields

Time = 43.7

Reconstructing FV fields

    Reconstructing volScalarFields

        p

    Reconstructing volVectorFields

        U

    Reconstructing surfaceScalarFields

        phi

Reconstructing point fields

No point fields

No lagrangian fields

Time = 43.8

Reconstructing FV fields

    Reconstructing volScalarFields

        p

    Reconstructing volVectorFields

        U

    Reconstructing surfaceScalarFields

        phi

Reconstructing point fields

No point fields

No lagrangian fields

Time = 43.9

Reconstructing FV fields

    Reconstructing volScalarFields

        p

    Reconstructing volVectorFields

        U

    Reconstructing surfaceScalarFields

        phi

Reconstructing point fields

No point fields

No lagrangian fields

Time = 44

Reconstructing FV fields

    Reconstructing volScalarFields

        p

    Reconstructing volVectorFields

        U

    Reconstructing surfaceScalarFields

        phi

Reconstructing point fields

No point fields

No lagrangian fields

Time = 44.1

Reconstructing FV fields

    Reconstructing volScalarFields

        p

    Reconstructing volVectorFields

        U

    Reconstructing surfaceScalarFields

        phi

Reconstructing point fields

No point fields

No lagrangian fields

Time = 44.2

Reconstructing FV fields

    Reconstructing volScalarFields

        p

    Reconstructing volVectorFields

        U

    Reconstructing surfaceScalarFields

        phi

Reconstructing point fields

No point fields

No lagrangian fields

Time = 44.3

Reconstructing FV fields

    Reconstructing volScalarFields

        p

    Reconstructing volVectorFields

        U

    Reconstructing surfaceScalarFields

        phi

Reconstructing point fields

No point fields

No lagrangian fields

Time = 44.4

Reconstructing FV fields

    Reconstructing volScalarFields

        p

    Reconstructing volVectorFields

        U

    Reconstructing surfaceScalarFields

        phi

Reconstructing point fields

No point fields

No lagrangian fields

Time = 44.5

Reconstructing FV fields

    Reconstructing volScalarFields

        p

    Reconstructing volVectorFields

        U

    Reconstructing surfaceScalarFields

        phi

Reconstructing point fields

No point fields

No lagrangian fields

Time = 44.6

Reconstructing FV fields

    Reconstructing volScalarFields

        p

    Reconstructing volVectorFields

        U

    Reconstructing surfaceScalarFields

        phi

Reconstructing point fields

No point fields

No lagrangian fields

Time = 44.7

Reconstructing FV fields

    Reconstructing volScalarFields

        p

    Reconstructing volVectorFields

        U

    Reconstructing surfaceScalarFields

        phi

Reconstructing point fields

No point fields

No lagrangian fields

Time = 44.8

Reconstructing FV fields

    Reconstructing volScalarFields

        p

    Reconstructing volVectorFields

        U

    Reconstructing surfaceScalarFields

        phi

Reconstructing point fields

No point fields

No lagrangian fields

Time = 44.9

Reconstructing FV fields

    Reconstructing volScalarFields

        p

    Reconstructing volVectorFields

        U

    Reconstructing surfaceScalarFields

        phi

Reconstructing point fields

No point fields

No lagrangian fields

Time = 45

Reconstructing FV fields

    Reconstructing volScalarFields

        p

    Reconstructing volVectorFields

        U

    Reconstructing surfaceScalarFields

        phi

Reconstructing point fields

No point fields

No lagrangian fields

Time = 45.1

Reconstructing FV fields

    Reconstructing volScalarFields

        p

    Reconstructing volVectorFields

        U

    Reconstructing surfaceScalarFields

        phi

Reconstructing point fields

No point fields

No lagrangian fields

Time = 45.2

Reconstructing FV fields

    Reconstructing volScalarFields

        p

    Reconstructing volVectorFields

        U

    Reconstructing surfaceScalarFields

        phi

Reconstructing point fields

No point fields

No lagrangian fields

Time = 45.3

Reconstructing FV fields

    Reconstructing volScalarFields

        p

    Reconstructing volVectorFields

        U

    Reconstructing surfaceScalarFields

        phi

Reconstructing point fields

No point fields

No lagrangian fields

Time = 45.4

Reconstructing FV fields

    Reconstructing volScalarFields

        p

    Reconstructing volVectorFields

        U

    Reconstructing surfaceScalarFields

        phi

Reconstructing point fields

No point fields

No lagrangian fields

Time = 45.5

Reconstructing FV fields

    Reconstructing volScalarFields

        p

    Reconstructing volVectorFields

        U

    Reconstructing surfaceScalarFields

        phi

Reconstructing point fields

No point fields

No lagrangian fields

Time = 45.6

Reconstructing FV fields

    Reconstructing volScalarFields

        p

    Reconstructing volVectorFields

        U

    Reconstructing surfaceScalarFields

        phi

Reconstructing point fields

No point fields

No lagrangian fields

Time = 45.7

Reconstructing FV fields

    Reconstructing volScalarFields

        p

    Reconstructing volVectorFields

        U

    Reconstructing surfaceScalarFields

        phi

Reconstructing point fields

No point fields

No lagrangian fields

Time = 45.8

Reconstructing FV fields

    Reconstructing volScalarFields

        p

    Reconstructing volVectorFields

        U

    Reconstructing surfaceScalarFields

        phi

Reconstructing point fields

No point fields

No lagrangian fields

Time = 45.9

Reconstructing FV fields

    Reconstructing volScalarFields

        p

    Reconstructing volVectorFields

        U

    Reconstructing surfaceScalarFields

        phi

Reconstructing point fields

No point fields

No lagrangian fields

Time = 46

Reconstructing FV fields

    Reconstructing volScalarFields

        p

    Reconstructing volVectorFields

        U

    Reconstructing surfaceScalarFields

        phi

Reconstructing point fields

No point fields

No lagrangian fields

Time = 46.1

Reconstructing FV fields

    Reconstructing volScalarFields

        p

    Reconstructing volVectorFields

        U

    Reconstructing surfaceScalarFields

        phi

Reconstructing point fields

No point fields

No lagrangian fields

Time = 46.2

Reconstructing FV fields

    Reconstructing volScalarFields

        p

    Reconstructing volVectorFields

        U

    Reconstructing surfaceScalarFields

        phi

Reconstructing point fields

No point fields

No lagrangian fields

Time = 46.3

Reconstructing FV fields

    Reconstructing volScalarFields

        p

    Reconstructing volVectorFields

        U

    Reconstructing surfaceScalarFields

        phi

Reconstructing point fields

No point fields

No lagrangian fields

Time = 46.4

Reconstructing FV fields

    Reconstructing volScalarFields

        p

    Reconstructing volVectorFields

        U

    Reconstructing surfaceScalarFields

        phi

Reconstructing point fields

No point fields

No lagrangian fields

Time = 46.5

Reconstructing FV fields

    Reconstructing volScalarFields

        p

    Reconstructing volVectorFields

        U

    Reconstructing surfaceScalarFields

        phi

Reconstructing point fields

No point fields

No lagrangian fields

Time = 46.6

Reconstructing FV fields

    Reconstructing volScalarFields

        p

    Reconstructing volVectorFields

        U

    Reconstructing surfaceScalarFields

        phi

Reconstructing point fields

No point fields

No lagrangian fields

Time = 46.7

Reconstructing FV fields

    Reconstructing volScalarFields

        p

    Reconstructing volVectorFields

        U

    Reconstructing surfaceScalarFields

        phi

Reconstructing point fields

No point fields

No lagrangian fields

Time = 46.8

Reconstructing FV fields

    Reconstructing volScalarFields

        p

    Reconstructing volVectorFields

        U

    Reconstructing surfaceScalarFields

        phi

Reconstructing point fields

No point fields

No lagrangian fields

Time = 46.9

Reconstructing FV fields

    Reconstructing volScalarFields

        p

    Reconstructing volVectorFields

        U

    Reconstructing surfaceScalarFields

        phi

Reconstructing point fields

No point fields

No lagrangian fields

Time = 47

Reconstructing FV fields

    Reconstructing volScalarFields

        p

    Reconstructing volVectorFields

        U

    Reconstructing surfaceScalarFields

        phi

Reconstructing point fields

No point fields

No lagrangian fields

Time = 47.1

Reconstructing FV fields

    Reconstructing volScalarFields

        p

    Reconstructing volVectorFields

        U

    Reconstructing surfaceScalarFields

        phi

Reconstructing point fields

No point fields

No lagrangian fields

Time = 47.2

Reconstructing FV fields

    Reconstructing volScalarFields

        p

    Reconstructing volVectorFields

        U

    Reconstructing surfaceScalarFields

        phi

Reconstructing point fields

No point fields

No lagrangian fields

Time = 47.3

Reconstructing FV fields

    Reconstructing volScalarFields

        p

    Reconstructing volVectorFields

        U

    Reconstructing surfaceScalarFields

        phi

Reconstructing point fields

No point fields

No lagrangian fields

Time = 47.4

Reconstructing FV fields

    Reconstructing volScalarFields

        p

    Reconstructing volVectorFields

        U

    Reconstructing surfaceScalarFields

        phi

Reconstructing point fields

No point fields

No lagrangian fields

Time = 47.5

Reconstructing FV fields

    Reconstructing volScalarFields

        p

    Reconstructing volVectorFields

        U

    Reconstructing surfaceScalarFields

        phi

Reconstructing point fields

No point fields

No lagrangian fields

Time = 47.6

Reconstructing FV fields

    Reconstructing volScalarFields

        p

    Reconstructing volVectorFields

        U

    Reconstructing surfaceScalarFields

        phi

Reconstructing point fields

No point fields

No lagrangian fields

Time = 47.7

Reconstructing FV fields

    Reconstructing volScalarFields

        p

    Reconstructing volVectorFields

        U

    Reconstructing surfaceScalarFields

        phi

Reconstructing point fields

No point fields

No lagrangian fields

Time = 47.8

Reconstructing FV fields

    Reconstructing volScalarFields

        p

    Reconstructing volVectorFields

        U

    Reconstructing surfaceScalarFields

        phi

Reconstructing point fields

No point fields

No lagrangian fields

Time = 47.9

Reconstructing FV fields

    Reconstructing volScalarFields

        p

    Reconstructing volVectorFields

        U

    Reconstructing surfaceScalarFields

        phi

Reconstructing point fields

No point fields

No lagrangian fields

Time = 48

Reconstructing FV fields

    Reconstructing volScalarFields

        p

    Reconstructing volVectorFields

        U

    Reconstructing surfaceScalarFields

        phi

Reconstructing point fields

No point fields

No lagrangian fields

Time = 48.1

Reconstructing FV fields

    Reconstructing volScalarFields

        p

    Reconstructing volVectorFields

        U

    Reconstructing surfaceScalarFields

        phi

Reconstructing point fields

No point fields

No lagrangian fields

Time = 48.2

Reconstructing FV fields

    Reconstructing volScalarFields

        p

    Reconstructing volVectorFields

        U

    Reconstructing surfaceScalarFields

        phi

Reconstructing point fields

No point fields

No lagrangian fields

Time = 48.3

Reconstructing FV fields

    Reconstructing volScalarFields

        p

    Reconstructing volVectorFields

        U

    Reconstructing surfaceScalarFields

        phi

Reconstructing point fields

No point fields

No lagrangian fields

Time = 48.4

Reconstructing FV fields

    Reconstructing volScalarFields

        p

    Reconstructing volVectorFields

        U

    Reconstructing surfaceScalarFields

        phi

Reconstructing point fields

No point fields

No lagrangian fields

Time = 48.5

Reconstructing FV fields

    Reconstructing volScalarFields

        p

    Reconstructing volVectorFields

        U

    Reconstructing surfaceScalarFields

        phi

Reconstructing point fields

No point fields

No lagrangian fields

Time = 48.6

Reconstructing FV fields

    Reconstructing volScalarFields

        p

    Reconstructing volVectorFields

        U

    Reconstructing surfaceScalarFields

        phi

Reconstructing point fields

No point fields

No lagrangian fields

Time = 48.7

Reconstructing FV fields

    Reconstructing volScalarFields

        p

    Reconstructing volVectorFields

        U

    Reconstructing surfaceScalarFields

        phi

Reconstructing point fields

No point fields

No lagrangian fields

Time = 48.8

Reconstructing FV fields

    Reconstructing volScalarFields

        p

    Reconstructing volVectorFields

        U

    Reconstructing surfaceScalarFields

        phi

Reconstructing point fields

No point fields

No lagrangian fields

Time = 48.9

Reconstructing FV fields

    Reconstructing volScalarFields

        p

    Reconstructing volVectorFields

        U

    Reconstructing surfaceScalarFields

        phi

Reconstructing point fields

No point fields

No lagrangian fields

Time = 49

Reconstructing FV fields

    Reconstructing volScalarFields

        p

    Reconstructing volVectorFields

        U

    Reconstructing surfaceScalarFields

        phi

Reconstructing point fields

No point fields

No lagrangian fields

Time = 49.1

Reconstructing FV fields

    Reconstructing volScalarFields

        p

    Reconstructing volVectorFields

        U

    Reconstructing surfaceScalarFields

        phi

Reconstructing point fields

No point fields

No lagrangian fields

Time = 49.2

Reconstructing FV fields

    Reconstructing volScalarFields

        p

    Reconstructing volVectorFields

        U

    Reconstructing surfaceScalarFields

        phi

Reconstructing point fields

No point fields

No lagrangian fields

Time = 49.3

Reconstructing FV fields

    Reconstructing volScalarFields

        p

    Reconstructing volVectorFields

        U

    Reconstructing surfaceScalarFields

        phi

Reconstructing point fields

No point fields

No lagrangian fields

Time = 49.4

Reconstructing FV fields

    Reconstructing volScalarFields

        p

    Reconstructing volVectorFields

        U

    Reconstructing surfaceScalarFields

        phi

Reconstructing point fields

No point fields

No lagrangian fields

Time = 49.5

Reconstructing FV fields

    Reconstructing volScalarFields

        p

    Reconstructing volVectorFields

        U

    Reconstructing surfaceScalarFields

        phi

Reconstructing point fields

No point fields

No lagrangian fields

Time = 49.6

Reconstructing FV fields

    Reconstructing volScalarFields

        p

    Reconstructing volVectorFields

        U

    Reconstructing surfaceScalarFields

        phi

Reconstructing point fields

No point fields

No lagrangian fields

Time = 49.7

Reconstructing FV fields

    Reconstructing volScalarFields

        p

    Reconstructing volVectorFields

        U

    Reconstructing surfaceScalarFields

        phi

Reconstructing point fields

No point fields

No lagrangian fields

Time = 49.8

Reconstructing FV fields

    Reconstructing volScalarFields

        p

    Reconstructing volVectorFields

        U

    Reconstructing surfaceScalarFields

        phi

Reconstructing point fields

No point fields

No lagrangian fields

Time = 49.9

Reconstructing FV fields

    Reconstructing volScalarFields

        p

    Reconstructing volVectorFields

        U

    Reconstructing surfaceScalarFields

        phi

Reconstructing point fields

No point fields

No lagrangian fields

Time = 50

Reconstructing FV fields

    Reconstructing volScalarFields

        p

    Reconstructing volVectorFields

        U

    Reconstructing surfaceScalarFields

        phi

Reconstructing point fields

No point fields

No lagrangian fields

Time = 50.1

Reconstructing FV fields

    Reconstructing volScalarFields

        p

    Reconstructing volVectorFields

        U

    Reconstructing surfaceScalarFields

        phi

Reconstructing point fields

No point fields

No lagrangian fields

Time = 50.2

Reconstructing FV fields

    Reconstructing volScalarFields

        p

    Reconstructing volVectorFields

        U

    Reconstructing surfaceScalarFields

        phi

Reconstructing point fields

No point fields

No lagrangian fields

Time = 50.3

