/*---------------------------------------------------------------------------*\
  =========                 |
  \\      /  F ield         | OpenFOAM: The Open Source CFD Toolbox
   \\    /   O peration     | Website:  https://openfoam.org
    \\  /    A nd           | Version:  7
     \\/     M anipulation  |
\*---------------------------------------------------------------------------*/
Build  : 7-49b2b3b8b082
Exec   : icoFoam -parallel
Date   : Mar 23 2022
Time   : 10:59:27
Host   : "c506-094.stampede2.tacc.utexas.edu"
PID    : 309785
I/O    : uncollated
Case   : /work2/07752/as_tacc/stampede2/openfoam/code/sim
nProcs : 192
Slaves : 
191
(
"c506-094.stampede2.tacc.utexas.edu.309786"
"c506-094.stampede2.tacc.utexas.edu.309787"
"c506-094.stampede2.tacc.utexas.edu.309788"
"c506-094.stampede2.tacc.utexas.edu.309789"
"c506-094.stampede2.tacc.utexas.edu.309790"
"c506-094.stampede2.tacc.utexas.edu.309791"
"c506-094.stampede2.tacc.utexas.edu.309792"
"c506-094.stampede2.tacc.utexas.edu.309793"
"c506-094.stampede2.tacc.utexas.edu.309794"
"c506-094.stampede2.tacc.utexas.edu.309795"
"c506-094.stampede2.tacc.utexas.edu.309796"
"c506-131.stampede2.tacc.utexas.edu.75761"
"c506-131.stampede2.tacc.utexas.edu.75762"
"c506-131.stampede2.tacc.utexas.edu.75763"
"c506-131.stampede2.tacc.utexas.edu.75764"
"c506-131.stampede2.tacc.utexas.edu.75765"
"c506-131.stampede2.tacc.utexas.edu.75766"
"c506-131.stampede2.tacc.utexas.edu.75767"
"c506-131.stampede2.tacc.utexas.edu.75768"
"c506-131.stampede2.tacc.utexas.edu.75769"
"c506-131.stampede2.tacc.utexas.edu.75770"
"c506-131.stampede2.tacc.utexas.edu.75771"
"c506-131.stampede2.tacc.utexas.edu.75772"
"c506-132.stampede2.tacc.utexas.edu.6782"
"c506-132.stampede2.tacc.utexas.edu.6783"
"c506-132.stampede2.tacc.utexas.edu.6784"
"c506-132.stampede2.tacc.utexas.edu.6785"
"c506-132.stampede2.tacc.utexas.edu.6786"
"c506-132.stampede2.tacc.utexas.edu.6787"
"c506-132.stampede2.tacc.utexas.edu.6788"
"c506-132.stampede2.tacc.utexas.edu.6789"
"c506-132.stampede2.tacc.utexas.edu.6790"
"c506-132.stampede2.tacc.utexas.edu.6791"
"c506-132.stampede2.tacc.utexas.edu.6792"
"c506-132.stampede2.tacc.utexas.edu.6793"
"c506-134.stampede2.tacc.utexas.edu.288649"
"c506-134.stampede2.tacc.utexas.edu.288650"
"c506-134.stampede2.tacc.utexas.edu.288651"
"c506-134.stampede2.tacc.utexas.edu.288652"
"c506-134.stampede2.tacc.utexas.edu.288653"
"c506-134.stampede2.tacc.utexas.edu.288654"
"c506-134.stampede2.tacc.utexas.edu.288655"
"c506-134.stampede2.tacc.utexas.edu.288656"
"c506-134.stampede2.tacc.utexas.edu.288657"
"c506-134.stampede2.tacc.utexas.edu.288658"
"c506-134.stampede2.tacc.utexas.edu.288659"
"c506-134.stampede2.tacc.utexas.edu.288660"
"c506-094.stampede2.tacc.utexas.edu.309797"
"c506-094.stampede2.tacc.utexas.edu.309798"
"c506-094.stampede2.tacc.utexas.edu.309799"
"c506-094.stampede2.tacc.utexas.edu.309800"
"c506-094.stampede2.tacc.utexas.edu.309801"
"c506-094.stampede2.tacc.utexas.edu.309802"
"c506-094.stampede2.tacc.utexas.edu.309803"
"c506-094.stampede2.tacc.utexas.edu.309804"
"c506-094.stampede2.tacc.utexas.edu.309805"
"c506-094.stampede2.tacc.utexas.edu.309806"
"c506-094.stampede2.tacc.utexas.edu.309807"
"c506-094.stampede2.tacc.utexas.edu.309808"
"c506-131.stampede2.tacc.utexas.edu.75773"
"c506-131.stampede2.tacc.utexas.edu.75774"
"c506-131.stampede2.tacc.utexas.edu.75775"
"c506-131.stampede2.tacc.utexas.edu.75776"
"c506-131.stampede2.tacc.utexas.edu.75777"
"c506-131.stampede2.tacc.utexas.edu.75778"
"c506-131.stampede2.tacc.utexas.edu.75779"
"c506-131.stampede2.tacc.utexas.edu.75780"
"c506-131.stampede2.tacc.utexas.edu.75781"
"c506-131.stampede2.tacc.utexas.edu.75782"
"c506-131.stampede2.tacc.utexas.edu.75783"
"c506-131.stampede2.tacc.utexas.edu.75784"
"c506-132.stampede2.tacc.utexas.edu.6794"
"c506-132.stampede2.tacc.utexas.edu.6795"
"c506-132.stampede2.tacc.utexas.edu.6796"
"c506-132.stampede2.tacc.utexas.edu.6797"
"c506-132.stampede2.tacc.utexas.edu.6798"
"c506-132.stampede2.tacc.utexas.edu.6799"
"c506-132.stampede2.tacc.utexas.edu.6800"
"c506-132.stampede2.tacc.utexas.edu.6801"
"c506-132.stampede2.tacc.utexas.edu.6802"
"c506-132.stampede2.tacc.utexas.edu.6803"
"c506-132.stampede2.tacc.utexas.edu.6804"
"c506-132.stampede2.tacc.utexas.edu.6805"
"c506-134.stampede2.tacc.utexas.edu.288661"
"c506-134.stampede2.tacc.utexas.edu.288662"
"c506-134.stampede2.tacc.utexas.edu.288663"
"c506-134.stampede2.tacc.utexas.edu.288664"
"c506-134.stampede2.tacc.utexas.edu.288665"
"c506-134.stampede2.tacc.utexas.edu.288666"
"c506-134.stampede2.tacc.utexas.edu.288667"
"c506-134.stampede2.tacc.utexas.edu.288668"
"c506-134.stampede2.tacc.utexas.edu.288669"
"c506-134.stampede2.tacc.utexas.edu.288670"
"c506-134.stampede2.tacc.utexas.edu.288671"
"c506-134.stampede2.tacc.utexas.edu.288672"
"c506-094.stampede2.tacc.utexas.edu.309809"
"c506-094.stampede2.tacc.utexas.edu.309810"
"c506-094.stampede2.tacc.utexas.edu.309811"
"c506-094.stampede2.tacc.utexas.edu.309812"
"c506-094.stampede2.tacc.utexas.edu.309813"
"c506-094.stampede2.tacc.utexas.edu.309814"
"c506-094.stampede2.tacc.utexas.edu.309815"
"c506-094.stampede2.tacc.utexas.edu.309816"
"c506-094.stampede2.tacc.utexas.edu.309817"
"c506-094.stampede2.tacc.utexas.edu.309818"
"c506-094.stampede2.tacc.utexas.edu.309819"
"c506-094.stampede2.tacc.utexas.edu.309820"
"c506-131.stampede2.tacc.utexas.edu.75785"
"c506-131.stampede2.tacc.utexas.edu.75786"
"c506-131.stampede2.tacc.utexas.edu.75787"
"c506-131.stampede2.tacc.utexas.edu.75788"
"c506-131.stampede2.tacc.utexas.edu.75789"
"c506-131.stampede2.tacc.utexas.edu.75790"
"c506-131.stampede2.tacc.utexas.edu.75791"
"c506-131.stampede2.tacc.utexas.edu.75792"
"c506-131.stampede2.tacc.utexas.edu.75793"
"c506-131.stampede2.tacc.utexas.edu.75794"
"c506-131.stampede2.tacc.utexas.edu.75795"
"c506-131.stampede2.tacc.utexas.edu.75796"
"c506-132.stampede2.tacc.utexas.edu.6806"
"c506-132.stampede2.tacc.utexas.edu.6807"
"c506-132.stampede2.tacc.utexas.edu.6808"
"c506-132.stampede2.tacc.utexas.edu.6809"
"c506-132.stampede2.tacc.utexas.edu.6810"
"c506-132.stampede2.tacc.utexas.edu.6811"
"c506-132.stampede2.tacc.utexas.edu.6812"
"c506-132.stampede2.tacc.utexas.edu.6813"
"c506-132.stampede2.tacc.utexas.edu.6814"
"c506-132.stampede2.tacc.utexas.edu.6815"
"c506-132.stampede2.tacc.utexas.edu.6816"
"c506-132.stampede2.tacc.utexas.edu.6817"
"c506-134.stampede2.tacc.utexas.edu.288673"
"c506-134.stampede2.tacc.utexas.edu.288674"
"c506-134.stampede2.tacc.utexas.edu.288675"
"c506-134.stampede2.tacc.utexas.edu.288676"
"c506-134.stampede2.tacc.utexas.edu.288677"
"c506-134.stampede2.tacc.utexas.edu.288678"
"c506-134.stampede2.tacc.utexas.edu.288679"
"c506-134.stampede2.tacc.utexas.edu.288680"
"c506-134.stampede2.tacc.utexas.edu.288681"
"c506-134.stampede2.tacc.utexas.edu.288682"
"c506-134.stampede2.tacc.utexas.edu.288683"
"c506-134.stampede2.tacc.utexas.edu.288684"
"c506-094.stampede2.tacc.utexas.edu.309821"
"c506-094.stampede2.tacc.utexas.edu.309822"
"c506-094.stampede2.tacc.utexas.edu.309823"
"c506-094.stampede2.tacc.utexas.edu.309824"
"c506-094.stampede2.tacc.utexas.edu.309825"
"c506-094.stampede2.tacc.utexas.edu.309826"
"c506-094.stampede2.tacc.utexas.edu.309827"
"c506-094.stampede2.tacc.utexas.edu.309828"
"c506-094.stampede2.tacc.utexas.edu.309829"
"c506-094.stampede2.tacc.utexas.edu.309830"
"c506-094.stampede2.tacc.utexas.edu.309831"
"c506-094.stampede2.tacc.utexas.edu.309832"
"c506-131.stampede2.tacc.utexas.edu.75797"
"c506-131.stampede2.tacc.utexas.edu.75798"
"c506-131.stampede2.tacc.utexas.edu.75799"
"c506-131.stampede2.tacc.utexas.edu.75800"
"c506-131.stampede2.tacc.utexas.edu.75801"
"c506-131.stampede2.tacc.utexas.edu.75802"
"c506-131.stampede2.tacc.utexas.edu.75803"
"c506-131.stampede2.tacc.utexas.edu.75804"
"c506-131.stampede2.tacc.utexas.edu.75805"
"c506-131.stampede2.tacc.utexas.edu.75806"
"c506-131.stampede2.tacc.utexas.edu.75807"
"c506-131.stampede2.tacc.utexas.edu.75808"
"c506-132.stampede2.tacc.utexas.edu.6818"
"c506-132.stampede2.tacc.utexas.edu.6819"
"c506-132.stampede2.tacc.utexas.edu.6820"
"c506-132.stampede2.tacc.utexas.edu.6821"
"c506-132.stampede2.tacc.utexas.edu.6822"
"c506-132.stampede2.tacc.utexas.edu.6823"
"c506-132.stampede2.tacc.utexas.edu.6824"
"c506-132.stampede2.tacc.utexas.edu.6825"
"c506-132.stampede2.tacc.utexas.edu.6826"
"c506-132.stampede2.tacc.utexas.edu.6827"
"c506-132.stampede2.tacc.utexas.edu.6828"
"c506-132.stampede2.tacc.utexas.edu.6829"
"c506-134.stampede2.tacc.utexas.edu.288685"
"c506-134.stampede2.tacc.utexas.edu.288686"
"c506-134.stampede2.tacc.utexas.edu.288687"
"c506-134.stampede2.tacc.utexas.edu.288688"
"c506-134.stampede2.tacc.utexas.edu.288689"
"c506-134.stampede2.tacc.utexas.edu.288690"
"c506-134.stampede2.tacc.utexas.edu.288691"
"c506-134.stampede2.tacc.utexas.edu.288692"
"c506-134.stampede2.tacc.utexas.edu.288693"
"c506-134.stampede2.tacc.utexas.edu.288694"
"c506-134.stampede2.tacc.utexas.edu.288695"
"c506-134.stampede2.tacc.utexas.edu.288696"
)

Pstream initialized with:
    floatTransfer      : 0
    nProcsSimpleSum    : 0
    commsType          : nonBlocking
    polling iterations : 0
sigFpe : Enabling floating point exception trapping (FOAM_SIGFPE).
fileModificationChecking : Monitoring run-time modified files using timeStampMaster (fileModificationSkew 10)
allowSystemOperations : Allowing user-supplied system call operations

// * * * * * * * * * * * * * * * * * * * * * * * * * * * * * * * * * * * * * //
Create time

Create mesh for time = 0

Reading transportProperties

Reading field p

Reading field U

Reading/calculating face flux field phi


Starting time loop

Time = 0.002

Courant Number mean: 0.0201694 max: 0.0965182
smoothSolver:  Solving for Ux, Initial residual = 1, Final residual = 3.67315e-08, No Iterations 12
smoothSolver:  Solving for Uy, Initial residual = 0, Final residual = 0, No Iterations 0
DICPCG:  Solving for p, Initial residual = 1, Final residual = 9.8878e-08, No Iterations 404
time step continuity errors : sum local = 5.38059e-12, global = -5.97384e-15, cumulative = -5.97384e-15
DICPCG:  Solving for p, Initial residual = 0.0613475, Final residual = 9.54144e-08, No Iterations 366
time step continuity errors : sum local = 3.75123e-11, global = -8.71316e-14, cumulative = -9.31055e-14
ExecutionTime = 0.09 s  ClockTime = 0 s

Time = 0.004

Courant Number mean: 0.0212675 max: 0.172186
smoothSolver:  Solving for Ux, Initial residual = 0.331338, Final residual = 5.99208e-08, No Iterations 9
smoothSolver:  Solving for Uy, Initial residual = 0.332683, Final residual = 7.98854e-08, No Iterations 9
DICPCG:  Solving for p, Initial residual = 0.190448, Final residual = 9.9896e-08, No Iterations 381
time step continuity errors : sum local = 3.37036e-11, global = -2.02531e-13, cumulative = -2.95637e-13
DICPCG:  Solving for p, Initial residual = 0.243738, Final residual = 9.29269e-08, No Iterations 381
time step continuity errors : sum local = 8.89785e-12, global = 3.41325e-14, cumulative = -2.61504e-13
ExecutionTime = 0.12 s  ClockTime = 0 s

Time = 0.006

Courant Number mean: 0.0212839 max: 0.171394
smoothSolver:  Solving for Ux, Initial residual = 0.0181847, Final residual = 3.43663e-08, No Iterations 8
smoothSolver:  Solving for Uy, Initial residual = 0.02592, Final residual = 8.34403e-08, No Iterations 7
DICPCG:  Solving for p, Initial residual = 0.536112, Final residual = 9.49992e-08, No Iterations 368
time step continuity errors : sum local = 3.67392e-12, global = 4.04594e-14, cumulative = -2.21045e-13
DICPCG:  Solving for p, Initial residual = 0.108465, Final residual = 9.66476e-08, No Iterations 354
time step continuity errors : sum local = 2.57531e-12, global = 9.53228e-15, cumulative = -2.11513e-13
ExecutionTime = 0.14 s  ClockTime = 0 s

Time = 0.008

Courant Number mean: 0.0212903 max: 0.166093
smoothSolver:  Solving for Ux, Initial residual = 0.00943202, Final residual = 7.96071e-08, No Iterations 7
smoothSolver:  Solving for Uy, Initial residual = 0.00710725, Final residual = 3.93544e-08, No Iterations 6
DICPCG:  Solving for p, Initial residual = 0.129887, Final residual = 9.71572e-08, No Iterations 333
time step continuity errors : sum local = 2.3638e-12, global = -9.27143e-15, cumulative = -2.20784e-13
DICPCG:  Solving for p, Initial residual = 0.0190335, Final residual = 9.59703e-08, No Iterations 321
time step continuity errors : sum local = 2.02927e-12, global = -4.2394e-15, cumulative = -2.25023e-13
ExecutionTime = 0.16 s  ClockTime = 0 s

Time = 0.01

Courant Number mean: 0.0212951 max: 0.160928
smoothSolver:  Solving for Ux, Initial residual = 0.00823255, Final residual = 7.12965e-08, No Iterations 7
smoothSolver:  Solving for Uy, Initial residual = 0.00621985, Final residual = 5.88894e-08, No Iterations 6
DICPCG:  Solving for p, Initial residual = 0.093527, Final residual = 8.65165e-08, No Iterations 323
time step continuity errors : sum local = 1.70834e-12, global = 1.52423e-14, cumulative = -2.09781e-13
DICPCG:  Solving for p, Initial residual = 0.0119234, Final residual = 9.74566e-08, No Iterations 306
time step continuity errors : sum local = 1.73786e-12, global = -1.08564e-14, cumulative = -2.20638e-13
ExecutionTime = 0.19 s  ClockTime = 0 s

Time = 0.012

Courant Number mean: 0.0212989 max: 0.155963
smoothSolver:  Solving for Ux, Initial residual = 0.00745711, Final residual = 6.5968e-08, No Iterations 7
smoothSolver:  Solving for Uy, Initial residual = 0.00572297, Final residual = 7.56514e-08, No Iterations 6
DICPCG:  Solving for p, Initial residual = 0.0755102, Final residual = 9.53949e-08, No Iterations 320
time step continuity errors : sum local = 1.60748e-12, global = -7.47842e-16, cumulative = -2.21385e-13
DICPCG:  Solving for p, Initial residual = 0.00854139, Final residual = 9.20063e-08, No Iterations 287
time step continuity errors : sum local = 1.42366e-12, global = -6.29911e-15, cumulative = -2.27685e-13
ExecutionTime = 0.21 s  ClockTime = 1 s

Time = 0.014

Courant Number mean: 0.0213018 max: 0.151221
smoothSolver:  Solving for Ux, Initial residual = 0.00685471, Final residual = 6.198e-08, No Iterations 7
smoothSolver:  Solving for Uy, Initial residual = 0.00540562, Final residual = 8.29585e-08, No Iterations 6
DICPCG:  Solving for p, Initial residual = 0.0636908, Final residual = 9.89005e-08, No Iterations 322
time step continuity errors : sum local = 1.45775e-12, global = 1.2674e-14, cumulative = -2.15011e-13
DICPCG:  Solving for p, Initial residual = 0.00656126, Final residual = 9.51208e-08, No Iterations 284
time step continuity errors : sum local = 1.30088e-12, global = -5.53235e-15, cumulative = -2.20543e-13
ExecutionTime = 0.23 s  ClockTime = 1 s

Time = 0.016

Courant Number mean: 0.0213042 max: 0.146705
smoothSolver:  Solving for Ux, Initial residual = 0.00638943, Final residual = 5.87331e-08, No Iterations 7
smoothSolver:  Solving for Uy, Initial residual = 0.00514031, Final residual = 8.59693e-08, No Iterations 6
DICPCG:  Solving for p, Initial residual = 0.054904, Final residual = 9.47157e-08, No Iterations 322
time step continuity errors : sum local = 1.24105e-12, global = 1.30961e-14, cumulative = -2.07447e-13
DICPCG:  Solving for p, Initial residual = 0.00524032, Final residual = 9.50428e-08, No Iterations 283
time step continuity errors : sum local = 1.16408e-12, global = -3.58902e-15, cumulative = -2.11036e-13
ExecutionTime = 0.25 s  ClockTime = 1 s

Time = 0.018

Courant Number mean: 0.0213062 max: 0.14328
smoothSolver:  Solving for Ux, Initial residual = 0.00599711, Final residual = 5.59595e-08, No Iterations 7
smoothSolver:  Solving for Uy, Initial residual = 0.00489763, Final residual = 8.6786e-08, No Iterations 6
DICPCG:  Solving for p, Initial residual = 0.0480392, Final residual = 9.58026e-08, No Iterations 321
time step continuity errors : sum local = 1.12963e-12, global = 9.94883e-15, cumulative = -2.01087e-13
DICPCG:  Solving for p, Initial residual = 0.00431222, Final residual = 9.66883e-08, No Iterations 283
time step continuity errors : sum local = 1.07224e-12, global = -3.53151e-15, cumulative = -2.04619e-13
ExecutionTime = 0.27 s  ClockTime = 1 s

Time = 0.02

Courant Number mean: 0.0213077 max: 0.143115
smoothSolver:  Solving for Ux, Initial residual = 0.00565705, Final residual = 5.35158e-08, No Iterations 7
smoothSolver:  Solving for Uy, Initial residual = 0.0046735, Final residual = 8.63737e-08, No Iterations 6
DICPCG:  Solving for p, Initial residual = 0.0425995, Final residual = 9.82996e-08, No Iterations 320
time step continuity errors : sum local = 1.05361e-12, global = 6.33903e-15, cumulative = -1.9828e-13
DICPCG:  Solving for p, Initial residual = 0.00365586, Final residual = 9.39968e-08, No Iterations 283
time step continuity errors : sum local = 9.52323e-13, global = -4.01347e-15, cumulative = -2.02293e-13
ExecutionTime = 0.29 s  ClockTime = 1 s

Time = 0.022

Courant Number mean: 0.0213089 max: 0.142902
smoothSolver:  Solving for Ux, Initial residual = 0.00535919, Final residual = 5.13026e-08, No Iterations 7
smoothSolver:  Solving for Uy, Initial residual = 0.00446595, Final residual = 8.52361e-08, No Iterations 6
DICPCG:  Solving for p, Initial residual = 0.0386504, Final residual = 9.87125e-08, No Iterations 319
time step continuity errors : sum local = 9.69375e-13, global = 3.60764e-15, cumulative = -1.98685e-13
DICPCG:  Solving for p, Initial residual = 0.00318958, Final residual = 9.29723e-08, No Iterations 284
time step continuity errors : sum local = 8.66295e-13, global = -3.59201e-15, cumulative = -2.02277e-13
ExecutionTime = 0.31 s  ClockTime = 1 s

Time = 0.024

Courant Number mean: 0.0213099 max: 0.142642
smoothSolver:  Solving for Ux, Initial residual = 0.00509411, Final residual = 4.9262e-08, No Iterations 7
smoothSolver:  Solving for Uy, Initial residual = 0.00427277, Final residual = 8.36535e-08, No Iterations 6
DICPCG:  Solving for p, Initial residual = 0.0354653, Final residual = 8.71683e-08, No Iterations 319
time step continuity errors : sum local = 7.89341e-13, global = 1.34972e-15, cumulative = -2.00928e-13
DICPCG:  Solving for p, Initial residual = 0.00282737, Final residual = 9.83893e-08, No Iterations 285
time step continuity errors : sum local = 8.48293e-13, global = -4.84021e-15, cumulative = -2.05768e-13
ExecutionTime = 0.33 s  ClockTime = 1 s

Time = 0.026

Courant Number mean: 0.0213107 max: 0.142337
smoothSolver:  Solving for Ux, Initial residual = 0.00485552, Final residual = 4.73581e-08, No Iterations 7
smoothSolver:  Solving for Uy, Initial residual = 0.00409353, Final residual = 8.17999e-08, No Iterations 6
DICPCG:  Solving for p, Initial residual = 0.0329694, Final residual = 8.95459e-08, No Iterations 318
time step continuity errors : sum local = 7.51766e-13, global = 1.17822e-15, cumulative = -2.0459e-13
DICPCG:  Solving for p, Initial residual = 0.00254001, Final residual = 9.65339e-08, No Iterations 287
time step continuity errors : sum local = 7.73692e-13, global = -5.02248e-15, cumulative = -2.09612e-13
ExecutionTime = 0.35 s  ClockTime = 1 s

Time = 0.028

Courant Number mean: 0.0213113 max: 0.141989
smoothSolver:  Solving for Ux, Initial residual = 0.00463917, Final residual = 4.55672e-08, No Iterations 7
smoothSolver:  Solving for Uy, Initial residual = 0.0039273, Final residual = 7.97872e-08, No Iterations 6
DICPCG:  Solving for p, Initial residual = 0.0310717, Final residual = 9.96582e-08, No Iterations 317
time step continuity errors : sum local = 7.79187e-13, global = 3.64118e-15, cumulative = -2.05971e-13
DICPCG:  Solving for p, Initial residual = 0.00231494, Final residual = 9.91439e-08, No Iterations 286
time step continuity errors : sum local = 7.41883e-13, global = -5.35157e-15, cumulative = -2.11322e-13
ExecutionTime = 0.37 s  ClockTime = 1 s

Time = 0.03

Courant Number mean: 0.0213117 max: 0.141603
smoothSolver:  Solving for Ux, Initial residual = 0.00444154, Final residual = 4.38741e-08, No Iterations 7
smoothSolver:  Solving for Uy, Initial residual = 0.00377272, Final residual = 7.76883e-08, No Iterations 6
DICPCG:  Solving for p, Initial residual = 0.0290648, Final residual = 9.65544e-08, No Iterations 317
time step continuity errors : sum local = 7.05927e-13, global = 2.57286e-15, cumulative = -2.0875e-13
DICPCG:  Solving for p, Initial residual = 0.0021222, Final residual = 9.76664e-08, No Iterations 286
time step continuity errors : sum local = 6.84872e-13, global = -5.49542e-15, cumulative = -2.14245e-13
ExecutionTime = 0.39 s  ClockTime = 1 s

Time = 0.032

Courant Number mean: 0.0213121 max: 0.141182
smoothSolver:  Solving for Ux, Initial residual = 0.00426004, Final residual = 4.22692e-08, No Iterations 7
smoothSolver:  Solving for Uy, Initial residual = 0.00362915, Final residual = 7.55564e-08, No Iterations 6
DICPCG:  Solving for p, Initial residual = 0.0274819, Final residual = 9.54702e-08, No Iterations 317
time step continuity errors : sum local = 6.54861e-13, global = 1.9004e-15, cumulative = -2.12345e-13
DICPCG:  Solving for p, Initial residual = 0.00196217, Final residual = 9.88527e-08, No Iterations 286
time step continuity errors : sum local = 6.51455e-13, global = -5.56398e-15, cumulative = -2.17909e-13
ExecutionTime = 0.41 s  ClockTime = 1 s

Time = 0.034

Courant Number mean: 0.0213123 max: 0.140729
smoothSolver:  Solving for Ux, Initial residual = 0.00409239, Final residual = 4.07434e-08, No Iterations 7
smoothSolver:  Solving for Uy, Initial residual = 0.00349612, Final residual = 7.34171e-08, No Iterations 6
DICPCG:  Solving for p, Initial residual = 0.0257113, Final residual = 9.59082e-08, No Iterations 317
time step continuity errors : sum local = 6.19173e-13, global = 1.57582e-15, cumulative = -2.16333e-13
DICPCG:  Solving for p, Initial residual = 0.0018288, Final residual = 8.8986e-08, No Iterations 287
time step continuity errors : sum local = 5.53059e-13, global = -5.08489e-15, cumulative = -2.21418e-13
ExecutionTime = 0.43 s  ClockTime = 1 s

Time = 0.036

Courant Number mean: 0.0213124 max: 0.140251
smoothSolver:  Solving for Ux, Initial residual = 0.00393763, Final residual = 3.92943e-08, No Iterations 7
smoothSolver:  Solving for Uy, Initial residual = 0.00337204, Final residual = 7.12906e-08, No Iterations 6
DICPCG:  Solving for p, Initial residual = 0.0244404, Final residual = 9.67957e-08, No Iterations 317
time step continuity errors : sum local = 5.8994e-13, global = 1.3299e-15, cumulative = -2.20088e-13
DICPCG:  Solving for p, Initial residual = 0.00169717, Final residual = 9.05921e-08, No Iterations 287
time step continuity errors : sum local = 5.32329e-13, global = -4.80075e-15, cumulative = -2.24889e-13
ExecutionTime = 0.45 s  ClockTime = 1 s

Time = 0.038

Courant Number mean: 0.0213125 max: 0.139753
smoothSolver:  Solving for Ux, Initial residual = 0.00379404, Final residual = 3.79141e-08, No Iterations 7
smoothSolver:  Solving for Uy, Initial residual = 0.00325629, Final residual = 6.91981e-08, No Iterations 6
DICPCG:  Solving for p, Initial residual = 0.0229162, Final residual = 9.58717e-08, No Iterations 317
time step continuity errors : sum local = 5.53328e-13, global = 1.55382e-15, cumulative = -2.23335e-13
DICPCG:  Solving for p, Initial residual = 0.00158704, Final residual = 9.14375e-08, No Iterations 287
time step continuity errors : sum local = 5.09889e-13, global = -4.48018e-15, cumulative = -2.27815e-13
ExecutionTime = 0.47 s  ClockTime = 1 s

Time = 0.04

Courant Number mean: 0.0213125 max: 0.139231
smoothSolver:  Solving for Ux, Initial residual = 0.00366002, Final residual = 3.6598e-08, No Iterations 7
smoothSolver:  Solving for Uy, Initial residual = 0.00314733, Final residual = 6.71482e-08, No Iterations 6
DICPCG:  Solving for p, Initial residual = 0.021652, Final residual = 9.19688e-08, No Iterations 317
time step continuity errors : sum local = 5.04193e-13, global = 1.75397e-15, cumulative = -2.26061e-13
DICPCG:  Solving for p, Initial residual = 0.00149277, Final residual = 9.21439e-08, No Iterations 287
time step continuity errors : sum local = 4.88741e-13, global = -4.24022e-15, cumulative = -2.30301e-13
ExecutionTime = 0.5 s  ClockTime = 1 s

Time = 0.042

Courant Number mean: 0.0213125 max: 0.138689
smoothSolver:  Solving for Ux, Initial residual = 0.0035346, Final residual = 3.53419e-08, No Iterations 7
smoothSolver:  Solving for Uy, Initial residual = 0.00304527, Final residual = 6.51545e-08, No Iterations 6
DICPCG:  Solving for p, Initial residual = 0.0206039, Final residual = 9.12113e-08, No Iterations 317
time step continuity errors : sum local = 4.76193e-13, global = 1.57189e-15, cumulative = -2.28729e-13
DICPCG:  Solving for p, Initial residual = 0.00144047, Final residual = 9.20888e-08, No Iterations 287
time step continuity errors : sum local = 4.65926e-13, global = -3.93934e-15, cumulative = -2.32669e-13
ExecutionTime = 0.53 s  ClockTime = 1 s

Time = 0.044

Courant Number mean: 0.0213124 max: 0.138127
smoothSolver:  Solving for Ux, Initial residual = 0.00341713, Final residual = 3.41435e-08, No Iterations 7
smoothSolver:  Solving for Uy, Initial residual = 0.0029491, Final residual = 6.32344e-08, No Iterations 6
DICPCG:  Solving for p, Initial residual = 0.019522, Final residual = 9.6586e-08, No Iterations 314
time step continuity errors : sum local = 4.8155e-13, global = 2.34981e-15, cumulative = -2.30319e-13
DICPCG:  Solving for p, Initial residual = 0.00137787, Final residual = 9.21725e-08, No Iterations 287
time step continuity errors : sum local = 4.46061e-13, global = -3.62403e-15, cumulative = -2.33943e-13
ExecutionTime = 0.55 s  ClockTime = 1 s

Time = 0.046

Courant Number mean: 0.0213123 max: 0.137547
smoothSolver:  Solving for Ux, Initial residual = 0.0033068, Final residual = 3.29984e-08, No Iterations 7
smoothSolver:  Solving for Uy, Initial residual = 0.00285845, Final residual = 6.13775e-08, No Iterations 6
DICPCG:  Solving for p, Initial residual = 0.0185636, Final residual = 9.76481e-08, No Iterations 308
time step continuity errors : sum local = 4.66139e-13, global = 6.24523e-16, cumulative = -2.33318e-13
DICPCG:  Solving for p, Initial residual = 0.00131027, Final residual = 9.16908e-08, No Iterations 287
time step continuity errors : sum local = 4.25474e-13, global = -3.33165e-15, cumulative = -2.3665e-13
ExecutionTime = 0.57 s  ClockTime = 1 s

Time = 0.048

Courant Number mean: 0.0213121 max: 0.136953
smoothSolver:  Solving for Ux, Initial residual = 0.00320281, Final residual = 3.19002e-08, No Iterations 7
smoothSolver:  Solving for Uy, Initial residual = 0.00277297, Final residual = 5.95863e-08, No Iterations 6
DICPCG:  Solving for p, Initial residual = 0.0176855, Final residual = 9.69909e-08, No Iterations 308
time step continuity errors : sum local = 4.4434e-13, global = 3.64886e-16, cumulative = -2.36285e-13
DICPCG:  Solving for p, Initial residual = 0.00126174, Final residual = 9.13307e-08, No Iterations 287
time step continuity errors : sum local = 4.07254e-13, global = -3.08521e-15, cumulative = -2.3937e-13
ExecutionTime = 0.59 s  ClockTime = 1 s

Time = 0.05

Courant Number mean: 0.0213119 max: 0.136345
smoothSolver:  Solving for Ux, Initial residual = 0.00310457, Final residual = 3.08478e-08, No Iterations 7
smoothSolver:  Solving for Uy, Initial residual = 0.00269227, Final residual = 5.78703e-08, No Iterations 6
DICPCG:  Solving for p, Initial residual = 0.0170459, Final residual = 9.86503e-08, No Iterations 314
time step continuity errors : sum local = 4.34649e-13, global = 1.48104e-15, cumulative = -2.37889e-13
DICPCG:  Solving for p, Initial residual = 0.00123503, Final residual = 9.96022e-08, No Iterations 286
time step continuity errors : sum local = 4.27669e-13, global = -3.292e-15, cumulative = -2.41181e-13
ExecutionTime = 0.61 s  ClockTime = 1 s

Time = 0.052

Courant Number mean: 0.0213117 max: 0.135726
smoothSolver:  Solving for Ux, Initial residual = 0.00301222, Final residual = 2.98444e-08, No Iterations 7
smoothSolver:  Solving for Uy, Initial residual = 0.00261599, Final residual = 5.62256e-08, No Iterations 6
DICPCG:  Solving for p, Initial residual = 0.0161791, Final residual = 9.58035e-08, No Iterations 315
time step continuity errors : sum local = 4.06782e-13, global = 1.05454e-15, cumulative = -2.40127e-13
DICPCG:  Solving for p, Initial residual = 0.00118775, Final residual = 9.89608e-08, No Iterations 286
time step continuity errors : sum local = 4.09982e-13, global = -3.04276e-15, cumulative = -2.43169e-13
ExecutionTime = 0.63 s  ClockTime = 1 s

Time = 0.054

Courant Number mean: 0.0213115 max: 0.135096
smoothSolver:  Solving for Ux, Initial residual = 0.00292542, Final residual = 2.88873e-08, No Iterations 7
smoothSolver:  Solving for Uy, Initial residual = 0.00254387, Final residual = 5.46607e-08, No Iterations 6
DICPCG:  Solving for p, Initial residual = 0.0155423, Final residual = 8.91645e-08, No Iterations 316
time step continuity errors : sum local = 3.65534e-13, global = 9.04916e-16, cumulative = -2.42265e-13
DICPCG:  Solving for p, Initial residual = 0.00115457, Final residual = 9.80086e-08, No Iterations 286
time step continuity errors : sum local = 3.92452e-13, global = -2.81845e-15, cumulative = -2.45083e-13
ExecutionTime = 0.65 s  ClockTime = 1 s

Time = 0.056

Courant Number mean: 0.0213112 max: 0.134457
smoothSolver:  Solving for Ux, Initial residual = 0.00284387, Final residual = 2.7973e-08, No Iterations 7
smoothSolver:  Solving for Uy, Initial residual = 0.00247558, Final residual = 5.3178e-08, No Iterations 6
DICPCG:  Solving for p, Initial residual = 0.0148529, Final residual = 9.98058e-08, No Iterations 316
time step continuity errors : sum local = 3.95663e-13, global = 1.09664e-15, cumulative = -2.43986e-13
DICPCG:  Solving for p, Initial residual = 0.00112829, Final residual = 9.69624e-08, No Iterations 286
time step continuity errors : sum local = 3.75794e-13, global = -2.66017e-15, cumulative = -2.46647e-13
ExecutionTime = 0.67 s  ClockTime = 1 s

Time = 0.058

Courant Number mean: 0.021311 max: 0.133812
smoothSolver:  Solving for Ux, Initial residual = 0.00276739, Final residual = 2.71006e-08, No Iterations 7
smoothSolver:  Solving for Uy, Initial residual = 0.00241108, Final residual = 5.17588e-08, No Iterations 6
DICPCG:  Solving for p, Initial residual = 0.0142469, Final residual = 9.9882e-08, No Iterations 316
time step continuity errors : sum local = 3.83473e-13, global = 1.1918e-15, cumulative = -2.45455e-13
DICPCG:  Solving for p, Initial residual = 0.00111022, Final residual = 9.57429e-08, No Iterations 286
time step continuity errors : sum local = 3.5971e-13, global = -2.55204e-15, cumulative = -2.48007e-13
ExecutionTime = 0.69 s  ClockTime = 1 s

Time = 0.06

Courant Number mean: 0.0213107 max: 0.133164
smoothSolver:  Solving for Ux, Initial residual = 0.0026959, Final residual = 2.62673e-08, No Iterations 7
smoothSolver:  Solving for Uy, Initial residual = 0.00235039, Final residual = 5.04134e-08, No Iterations 6
DICPCG:  Solving for p, Initial residual = 0.0135051, Final residual = 9.64672e-08, No Iterations 316
time step continuity errors : sum local = 3.59278e-13, global = 8.80947e-16, cumulative = -2.47126e-13
DICPCG:  Solving for p, Initial residual = 0.00107086, Final residual = 9.4425e-08, No Iterations 286
time step continuity errors : sum local = 3.44488e-13, global = -2.22573e-15, cumulative = -2.49352e-13
ExecutionTime = 0.71 s  ClockTime = 1 s

Time = 0.062

Courant Number mean: 0.0213104 max: 0.132512
smoothSolver:  Solving for Ux, Initial residual = 0.00262974, Final residual = 2.54713e-08, No Iterations 7
smoothSolver:  Solving for Uy, Initial residual = 0.00229299, Final residual = 4.91286e-08, No Iterations 6
DICPCG:  Solving for p, Initial residual = 0.0131781, Final residual = 9.40054e-08, No Iterations 316
time step continuity errors : sum local = 3.40177e-13, global = 7.35175e-16, cumulative = -2.48616e-13
DICPCG:  Solving for p, Initial residual = 0.00107165, Final residual = 9.8802e-08, No Iterations 285
time step continuity errors : sum local = 3.50572e-13, global = -2.13309e-15, cumulative = -2.50749e-13
ExecutionTime = 0.73 s  ClockTime = 1 s

Time = 0.064

Courant Number mean: 0.0213102 max: 0.131857
smoothSolver:  Solving for Ux, Initial residual = 0.00256718, Final residual = 2.47124e-08, No Iterations 7
smoothSolver:  Solving for Uy, Initial residual = 0.00223857, Final residual = 4.78827e-08, No Iterations 6
DICPCG:  Solving for p, Initial residual = 0.0124717, Final residual = 9.56853e-08, No Iterations 316
time step continuity errors : sum local = 3.36924e-13, global = 7.32e-16, cumulative = -2.50017e-13
DICPCG:  Solving for p, Initial residual = 0.00103664, Final residual = 9.77747e-08, No Iterations 285
time step continuity errors : sum local = 3.3786e-13, global = -2.0802e-15, cumulative = -2.52098e-13
ExecutionTime = 0.75 s  ClockTime = 1 s

Time = 0.066

Courant Number mean: 0.0213099 max: 0.131199
smoothSolver:  Solving for Ux, Initial residual = 0.00250768, Final residual = 9.87977e-08, No Iterations 6
smoothSolver:  Solving for Uy, Initial residual = 0.00218707, Final residual = 4.66854e-08, No Iterations 6
DICPCG:  Solving for p, Initial residual = 0.0120949, Final residual = 9.52138e-08, No Iterations 316
time step continuity errors : sum local = 3.26652e-13, global = 6.98672e-16, cumulative = -2.51399e-13
DICPCG:  Solving for p, Initial residual = 0.00102492, Final residual = 9.53761e-08, No Iterations 285
time step continuity errors : sum local = 3.2136e-13, global = -1.86207e-15, cumulative = -2.53261e-13
ExecutionTime = 0.77 s  ClockTime = 1 s

Time = 0.068

Courant Number mean: 0.0213096 max: 0.13054
smoothSolver:  Solving for Ux, Initial residual = 0.00245105, Final residual = 9.59843e-08, No Iterations 6
smoothSolver:  Solving for Uy, Initial residual = 0.00213803, Final residual = 4.55272e-08, No Iterations 6
DICPCG:  Solving for p, Initial residual = 0.0116542, Final residual = 9.28638e-08, No Iterations 316
time step continuity errors : sum local = 3.1078e-13, global = 6.11818e-16, cumulative = -2.52649e-13
DICPCG:  Solving for p, Initial residual = 0.000991962, Final residual = 9.38565e-08, No Iterations 285
time step continuity errors : sum local = 3.08711e-13, global = -1.78255e-15, cumulative = -2.54432e-13
ExecutionTime = 0.8 s  ClockTime = 1 s

Time = 0.07

Courant Number mean: 0.0213093 max: 0.129881
smoothSolver:  Solving for Ux, Initial residual = 0.00239711, Final residual = 9.32867e-08, No Iterations 6
smoothSolver:  Solving for Uy, Initial residual = 0.00209138, Final residual = 4.44151e-08, No Iterations 6
DICPCG:  Solving for p, Initial residual = 0.0109333, Final residual = 9.06756e-08, No Iterations 316
time step continuity errors : sum local = 2.96376e-13, global = 5.47048e-16, cumulative = -2.53885e-13
DICPCG:  Solving for p, Initial residual = 0.000967263, Final residual = 9.20873e-08, No Iterations 285
time step continuity errors : sum local = 2.96062e-13, global = -1.71151e-15, cumulative = -2.55596e-13
ExecutionTime = 0.82 s  ClockTime = 1 s

Time = 0.072

Courant Number mean: 0.021309 max: 0.129222
smoothSolver:  Solving for Ux, Initial residual = 0.0023457, Final residual = 9.07047e-08, No Iterations 6
smoothSolver:  Solving for Uy, Initial residual = 0.00204685, Final residual = 4.33422e-08, No Iterations 6
DICPCG:  Solving for p, Initial residual = 0.0106903, Final residual = 8.85864e-08, No Iterations 316
time step continuity errors : sum local = 2.83096e-13, global = 4.8732e-16, cumulative = -2.55109e-13
DICPCG:  Solving for p, Initial residual = 0.000953479, Final residual = 9.07162e-08, No Iterations 285
time step continuity errors : sum local = 2.85321e-13, global = -1.61042e-15, cumulative = -2.56719e-13
ExecutionTime = 0.85 s  ClockTime = 1 s

Time = 0.074

Courant Number mean: 0.0213087 max: 0.128574
smoothSolver:  Solving for Ux, Initial residual = 0.00229653, Final residual = 8.82315e-08, No Iterations 6
smoothSolver:  Solving for Uy, Initial residual = 0.00200448, Final residual = 4.23085e-08, No Iterations 6
DICPCG:  Solving for p, Initial residual = 0.0100876, Final residual = 9.98207e-08, No Iterations 315
time step continuity errors : sum local = 3.12273e-13, global = 4.25474e-16, cumulative = -2.56294e-13
DICPCG:  Solving for p, Initial residual = 0.000929805, Final residual = 9.998e-08, No Iterations 284
time step continuity errors : sum local = 3.08123e-13, global = -1.40885e-15, cumulative = -2.57703e-13
ExecutionTime = 0.87 s  ClockTime = 1 s

Time = 0.076

Courant Number mean: 0.0213084 max: 0.12793
smoothSolver:  Solving for Ux, Initial residual = 0.00224953, Final residual = 8.58622e-08, No Iterations 6
smoothSolver:  Solving for Uy, Initial residual = 0.00196396, Final residual = 4.1311e-08, No Iterations 6
DICPCG:  Solving for p, Initial residual = 0.00960664, Final residual = 9.65209e-08, No Iterations 315
time step continuity errors : sum local = 2.95971e-13, global = 4.06246e-16, cumulative = -2.57296e-13
DICPCG:  Solving for p, Initial residual = 0.000909688, Final residual = 9.84188e-08, No Iterations 284
time step continuity errors : sum local = 2.97495e-13, global = -1.29252e-15, cumulative = -2.58589e-13
ExecutionTime = 0.89 s  ClockTime = 1 s

Time = 0.078

Courant Number mean: 0.0213081 max: 0.127288
smoothSolver:  Solving for Ux, Initial residual = 0.0022045, Final residual = 8.35894e-08, No Iterations 6
smoothSolver:  Solving for Uy, Initial residual = 0.00192538, Final residual = 4.03486e-08, No Iterations 6
DICPCG:  Solving for p, Initial residual = 0.00924616, Final residual = 9.39809e-08, No Iterations 315
time step continuity errors : sum local = 2.82769e-13, global = 3.69254e-16, cumulative = -2.5822e-13
DICPCG:  Solving for p, Initial residual = 0.00088855, Final residual = 9.66832e-08, No Iterations 284
time step continuity errors : sum local = 2.86953e-13, global = -1.22313e-15, cumulative = -2.59443e-13
ExecutionTime = 0.91 s  ClockTime = 1 s

Time = 0.08

Courant Number mean: 0.0213079 max: 0.126648
smoothSolver:  Solving for Ux, Initial residual = 0.00216138, Final residual = 8.14057e-08, No Iterations 6
smoothSolver:  Solving for Uy, Initial residual = 0.00188853, Final residual = 3.94217e-08, No Iterations 6
DICPCG:  Solving for p, Initial residual = 0.00900011, Final residual = 9.22597e-08, No Iterations 315
time step continuity errors : sum local = 2.72788e-13, global = 3.17553e-16, cumulative = -2.59125e-13
DICPCG:  Solving for p, Initial residual = 0.000865214, Final residual = 9.56906e-08, No Iterations 284
time step continuity errors : sum local = 2.79394e-13, global = -1.14393e-15, cumulative = -2.60269e-13
ExecutionTime = 0.93 s  ClockTime = 1 s

Time = 0.082

Courant Number mean: 0.0213076 max: 0.126011
smoothSolver:  Solving for Ux, Initial residual = 0.00212005, Final residual = 7.93063e-08, No Iterations 6
smoothSolver:  Solving for Uy, Initial residual = 0.00185339, Final residual = 3.85296e-08, No Iterations 6
DICPCG:  Solving for p, Initial residual = 0.00886911, Final residual = 8.86157e-08, No Iterations 315
time step continuity errors : sum local = 2.57861e-13, global = 6.13318e-16, cumulative = -2.59656e-13
DICPCG:  Solving for p, Initial residual = 0.000916007, Final residual = 9.37333e-08, No Iterations 284
time step continuity errors : sum local = 2.69562e-13, global = -1.07271e-15, cumulative = -2.60729e-13
ExecutionTime = 0.95 s  ClockTime = 1 s

Time = 0.084

Courant Number mean: 0.0213073 max: 0.125379
smoothSolver:  Solving for Ux, Initial residual = 0.00208044, Final residual = 7.73028e-08, No Iterations 6
smoothSolver:  Solving for Uy, Initial residual = 0.00182001, Final residual = 3.76606e-08, No Iterations 6
DICPCG:  Solving for p, Initial residual = 0.00832759, Final residual = 9.67127e-08, No Iterations 314
time step continuity errors : sum local = 2.77297e-13, global = 2.64762e-16, cumulative = -2.60464e-13
DICPCG:  Solving for p, Initial residual = 0.000870544, Final residual = 9.87663e-08, No Iterations 283
time step continuity errors : sum local = 2.80023e-13, global = -8.76807e-16, cumulative = -2.61341e-13
ExecutionTime = 0.97 s  ClockTime = 1 s

Time = 0.086

Courant Number mean: 0.021307 max: 0.124751
smoothSolver:  Solving for Ux, Initial residual = 0.00204234, Final residual = 7.53676e-08, No Iterations 6
smoothSolver:  Solving for Uy, Initial residual = 0.00178839, Final residual = 3.6825e-08, No Iterations 6
DICPCG:  Solving for p, Initial residual = 0.00816243, Final residual = 9.17048e-08, No Iterations 314
time step continuity errors : sum local = 2.59226e-13, global = 3.10367e-16, cumulative = -2.6103e-13
DICPCG:  Solving for p, Initial residual = 0.000874969, Final residual = 9.51183e-08, No Iterations 283
time step continuity errors : sum local = 2.65954e-13, global = -8.39958e-16, cumulative = -2.6187e-13
ExecutionTime = 0.99 s  ClockTime = 1 s

Time = 0.088

Courant Number mean: 0.0213067 max: 0.12413
smoothSolver:  Solving for Ux, Initial residual = 0.0020058, Final residual = 7.35082e-08, No Iterations 6
smoothSolver:  Solving for Uy, Initial residual = 0.00175888, Final residual = 3.60245e-08, No Iterations 6
DICPCG:  Solving for p, Initial residual = 0.00751216, Final residual = 8.99925e-08, No Iterations 314
time step continuity errors : sum local = 2.51014e-13, global = 4.9097e-16, cumulative = -2.61379e-13
DICPCG:  Solving for p, Initial residual = 0.000795941, Final residual = 9.97247e-08, No Iterations 282
time step continuity errors : sum local = 2.75348e-13, global = -4.06238e-16, cumulative = -2.61786e-13
ExecutionTime = 1.01 s  ClockTime = 1 s

Time = 0.09

Courant Number mean: 0.0213065 max: 0.123513
smoothSolver:  Solving for Ux, Initial residual = 0.00197068, Final residual = 7.17133e-08, No Iterations 6
smoothSolver:  Solving for Uy, Initial residual = 0.00173151, Final residual = 3.52499e-08, No Iterations 6
DICPCG:  Solving for p, Initial residual = 0.00716415, Final residual = 9.68184e-08, No Iterations 313
time step continuity errors : sum local = 2.667e-13, global = 3.79966e-16, cumulative = -2.61406e-13
DICPCG:  Solving for p, Initial residual = 0.000787645, Final residual = 9.59129e-08, No Iterations 282
time step continuity errors : sum local = 2.61633e-13, global = -4.76684e-16, cumulative = -2.61882e-13
ExecutionTime = 1.03 s  ClockTime = 1 s

Time = 0.092

Courant Number mean: 0.0213062 max: 0.122901
smoothSolver:  Solving for Ux, Initial residual = 0.00193688, Final residual = 6.9988e-08, No Iterations 6
smoothSolver:  Solving for Uy, Initial residual = 0.00170533, Final residual = 3.45038e-08, No Iterations 6
DICPCG:  Solving for p, Initial residual = 0.00713528, Final residual = 9.92264e-08, No Iterations 311
time step continuity errors : sum local = 2.70109e-13, global = 1.17435e-16, cumulative = -2.61765e-13
DICPCG:  Solving for p, Initial residual = 0.000791553, Final residual = 9.67392e-08, No Iterations 282
time step continuity errors : sum local = 2.60893e-13, global = -2.96704e-16, cumulative = -2.62062e-13
ExecutionTime = 1.05 s  ClockTime = 1 s

Time = 0.094

Courant Number mean: 0.0213059 max: 0.122293
smoothSolver:  Solving for Ux, Initial residual = 0.00190433, Final residual = 6.83264e-08, No Iterations 6
smoothSolver:  Solving for Uy, Initial residual = 0.00167995, Final residual = 3.37835e-08, No Iterations 6
DICPCG:  Solving for p, Initial residual = 0.00671981, Final residual = 9.83036e-08, No Iterations 312
time step continuity errors : sum local = 2.64583e-13, global = 3.14246e-16, cumulative = -2.61747e-13
DICPCG:  Solving for p, Initial residual = 0.000759569, Final residual = 9.60861e-08, No Iterations 281
time step continuity errors : sum local = 2.56296e-13, global = 2.08781e-16, cumulative = -2.61538e-13
ExecutionTime = 1.07 s  ClockTime = 1 s

Time = 0.096

Courant Number mean: 0.0213057 max: 0.121691
smoothSolver:  Solving for Ux, Initial residual = 0.00187298, Final residual = 6.67264e-08, No Iterations 6
smoothSolver:  Solving for Uy, Initial residual = 0.00165565, Final residual = 3.30893e-08, No Iterations 6
DICPCG:  Solving for p, Initial residual = 0.00657301, Final residual = 9.91803e-08, No Iterations 311
time step continuity errors : sum local = 2.64062e-13, global = 6.96696e-17, cumulative = -2.61469e-13
DICPCG:  Solving for p, Initial residual = 0.000746218, Final residual = 9.34467e-08, No Iterations 281
time step continuity errors : sum local = 2.46654e-13, global = 1.29203e-16, cumulative = -2.6134e-13
ExecutionTime = 1.1 s  ClockTime = 1 s

Time = 0.098

Courant Number mean: 0.0213054 max: 0.121095
smoothSolver:  Solving for Ux, Initial residual = 0.00184277, Final residual = 6.5188e-08, No Iterations 6
smoothSolver:  Solving for Uy, Initial residual = 0.00163222, Final residual = 3.24194e-08, No Iterations 6
DICPCG:  Solving for p, Initial residual = 0.00641322, Final residual = 9.67224e-08, No Iterations 311
time step continuity errors : sum local = 2.54939e-13, global = 1.68159e-17, cumulative = -2.61323e-13
DICPCG:  Solving for p, Initial residual = 0.000731964, Final residual = 9.03462e-08, No Iterations 281
time step continuity errors : sum local = 2.36233e-13, global = 9.49815e-17, cumulative = -2.61228e-13
ExecutionTime = 1.12 s  ClockTime = 1 s

Time = 0.1

Courant Number mean: 0.0213052 max: 0.120811
smoothSolver:  Solving for Ux, Initial residual = 0.00181369, Final residual = 6.3707e-08, No Iterations 6
smoothSolver:  Solving for Uy, Initial residual = 0.00160952, Final residual = 3.1771e-08, No Iterations 6
DICPCG:  Solving for p, Initial residual = 0.00621946, Final residual = 9.88357e-08, No Iterations 310
time step continuity errors : sum local = 2.58046e-13, global = 5.97222e-17, cumulative = -2.61168e-13
DICPCG:  Solving for p, Initial residual = 0.000718467, Final residual = 9.77226e-08, No Iterations 280
time step continuity errors : sum local = 2.53136e-13, global = 7.14877e-16, cumulative = -2.60453e-13
ExecutionTime = 1.15 s  ClockTime = 1 s

Time = 0.102

Courant Number mean: 0.0213049 max: 0.120669
smoothSolver:  Solving for Ux, Initial residual = 0.00178557, Final residual = 6.22798e-08, No Iterations 6
smoothSolver:  Solving for Uy, Initial residual = 0.00158764, Final residual = 3.11451e-08, No Iterations 6
DICPCG:  Solving for p, Initial residual = 0.00617141, Final residual = 9.5793e-08, No Iterations 310
time step continuity errors : sum local = 2.47752e-13, global = 4.29211e-17, cumulative = -2.6041e-13
DICPCG:  Solving for p, Initial residual = 0.000711007, Final residual = 9.43847e-08, No Iterations 280
time step continuity errors : sum local = 2.42223e-13, global = 6.81237e-16, cumulative = -2.59729e-13
ExecutionTime = 1.17 s  ClockTime = 2 s

Time = 0.104

Courant Number mean: 0.0213047 max: 0.120523
smoothSolver:  Solving for Ux, Initial residual = 0.00175837, Final residual = 6.09057e-08, No Iterations 6
smoothSolver:  Solving for Uy, Initial residual = 0.00156652, Final residual = 3.05484e-08, No Iterations 6
DICPCG:  Solving for p, Initial residual = 0.00597571, Final residual = 9.99985e-08, No Iterations 309
time step continuity errors : sum local = 2.56254e-13, global = 2.77484e-16, cumulative = -2.59452e-13
DICPCG:  Solving for p, Initial residual = 0.000699007, Final residual = 9.19872e-08, No Iterations 280
time step continuity errors : sum local = 2.3396e-13, global = 5.47689e-16, cumulative = -2.58904e-13
ExecutionTime = 1.19 s  ClockTime = 2 s

Time = 0.106

Courant Number mean: 0.0213045 max: 0.120373
smoothSolver:  Solving for Ux, Initial residual = 0.00173218, Final residual = 5.95811e-08, No Iterations 6
smoothSolver:  Solving for Uy, Initial residual = 0.0015461, Final residual = 2.99894e-08, No Iterations 6
DICPCG:  Solving for p, Initial residual = 0.00566854, Final residual = 9.5395e-08, No Iterations 309
time step continuity errors : sum local = 2.42349e-13, global = 4.5956e-16, cumulative = -2.58444e-13
DICPCG:  Solving for p, Initial residual = 0.000678486, Final residual = 9.77214e-08, No Iterations 279
time step continuity errors : sum local = 2.46523e-13, global = 1.07773e-15, cumulative = -2.57367e-13
ExecutionTime = 1.22 s  ClockTime = 2 s

Time = 0.108

Courant Number mean: 0.0213042 max: 0.120219
smoothSolver:  Solving for Ux, Initial residual = 0.00170685, Final residual = 5.83023e-08, No Iterations 6
smoothSolver:  Solving for Uy, Initial residual = 0.00152625, Final residual = 2.94582e-08, No Iterations 6
DICPCG:  Solving for p, Initial residual = 0.00548482, Final residual = 9.65523e-08, No Iterations 308
time step continuity errors : sum local = 2.43231e-13, global = 3.86952e-16, cumulative = -2.5698e-13
DICPCG:  Solving for p, Initial residual = 0.000672635, Final residual = 9.11731e-08, No Iterations 279
time step continuity errors : sum local = 2.28057e-13, global = 1.0967e-15, cumulative = -2.55883e-13
ExecutionTime = 1.24 s  ClockTime = 2 s

Time = 0.11

Courant Number mean: 0.021304 max: 0.120061
smoothSolver:  Solving for Ux, Initial residual = 0.00168233, Final residual = 5.70702e-08, No Iterations 6
smoothSolver:  Solving for Uy, Initial residual = 0.00150707, Final residual = 2.89478e-08, No Iterations 6
DICPCG:  Solving for p, Initial residual = 0.00554679, Final residual = 9.94718e-08, No Iterations 309
time step continuity errors : sum local = 2.48456e-13, global = 3.85718e-16, cumulative = -2.55497e-13
DICPCG:  Solving for p, Initial residual = 0.000705432, Final residual = 9.64353e-08, No Iterations 278
time step continuity errors : sum local = 2.39205e-13, global = 2.02916e-15, cumulative = -2.53468e-13
ExecutionTime = 1.26 s  ClockTime = 2 s

Time = 0.112

Courant Number mean: 0.0213038 max: 0.1199
smoothSolver:  Solving for Ux, Initial residual = 0.00165868, Final residual = 5.5887e-08, No Iterations 6
smoothSolver:  Solving for Uy, Initial residual = 0.00148852, Final residual = 2.84529e-08, No Iterations 6
DICPCG:  Solving for p, Initial residual = 0.00507383, Final residual = 9.5883e-08, No Iterations 307
time step continuity errors : sum local = 2.3757e-13, global = 7.65098e-17, cumulative = -2.53392e-13
DICPCG:  Solving for p, Initial residual = 0.000667797, Final residual = 8.78258e-08, No Iterations 279
time step continuity errors : sum local = 2.1619e-13, global = 1.10295e-15, cumulative = -2.52289e-13
ExecutionTime = 1.28 s  ClockTime = 2 s

Time = 0.114

Courant Number mean: 0.0213036 max: 0.119736
smoothSolver:  Solving for Ux, Initial residual = 0.0016358, Final residual = 5.47385e-08, No Iterations 6
smoothSolver:  Solving for Uy, Initial residual = 0.00147041, Final residual = 2.79751e-08, No Iterations 6
DICPCG:  Solving for p, Initial residual = 0.00507573, Final residual = 9.67823e-08, No Iterations 310
time step continuity errors : sum local = 2.37907e-13, global = 1.7305e-16, cumulative = -2.52116e-13
DICPCG:  Solving for p, Initial residual = 0.000694724, Final residual = 9.26398e-08, No Iterations 278
time step continuity errors : sum local = 2.26225e-13, global = 2.06413e-15, cumulative = -2.50051e-13
ExecutionTime = 1.31 s  ClockTime = 2 s

Time = 0.116

Courant Number mean: 0.0213034 max: 0.119569
smoothSolver:  Solving for Ux, Initial residual = 0.00161368, Final residual = 5.36352e-08, No Iterations 6
smoothSolver:  Solving for Uy, Initial residual = 0.00145295, Final residual = 2.75141e-08, No Iterations 6
DICPCG:  Solving for p, Initial residual = 0.00458758, Final residual = 9.40196e-08, No Iterations 307
time step continuity errors : sum local = 2.29413e-13, global = 6.73982e-16, cumulative = -2.49377e-13
DICPCG:  Solving for p, Initial residual = 0.000621419, Final residual = 9.2586e-08, No Iterations 278
time step continuity errors : sum local = 2.24578e-13, global = 1.28549e-15, cumulative = -2.48092e-13
ExecutionTime = 1.33 s  ClockTime = 2 s

Time = 0.118

Courant Number mean: 0.0213032 max: 0.119398
smoothSolver:  Solving for Ux, Initial residual = 0.00159228, Final residual = 5.25574e-08, No Iterations 6
smoothSolver:  Solving for Uy, Initial residual = 0.00143594, Final residual = 2.70691e-08, No Iterations 6
DICPCG:  Solving for p, Initial residual = 0.00445206, Final residual = 9.48414e-08, No Iterations 307
time step continuity errors : sum local = 2.29834e-13, global = 5.69448e-16, cumulative = -2.47523e-13
DICPCG:  Solving for p, Initial residual = 0.000622708, Final residual = 9.51603e-08, No Iterations 277
time step continuity errors : sum local = 2.29253e-13, global = 1.87016e-15, cumulative = -2.45652e-13
ExecutionTime = 1.35 s  ClockTime = 2 s

Time = 0.12

Courant Number mean: 0.021303 max: 0.119225
smoothSolver:  Solving for Ux, Initial residual = 0.00157154, Final residual = 5.15192e-08, No Iterations 6
smoothSolver:  Solving for Uy, Initial residual = 0.00141957, Final residual = 2.66346e-08, No Iterations 6
DICPCG:  Solving for p, Initial residual = 0.00440161, Final residual = 9.35231e-08, No Iterations 307
time step continuity errors : sum local = 2.25112e-13, global = 6.31547e-16, cumulative = -2.45021e-13
DICPCG:  Solving for p, Initial residual = 0.000613591, Final residual = 9.23631e-08, No Iterations 277
time step continuity errors : sum local = 2.21052e-13, global = 1.78124e-15, cumulative = -2.4324e-13
ExecutionTime = 1.37 s  ClockTime = 2 s

Time = 0.122

Courant Number mean: 0.0213028 max: 0.11905
smoothSolver:  Solving for Ux, Initial residual = 0.00155149, Final residual = 5.05149e-08, No Iterations 6
smoothSolver:  Solving for Uy, Initial residual = 0.00140376, Final residual = 2.62123e-08, No Iterations 6
DICPCG:  Solving for p, Initial residual = 0.00429385, Final residual = 9.19489e-08, No Iterations 307
time step continuity errors : sum local = 2.19865e-13, global = 6.7202e-16, cumulative = -2.42568e-13
DICPCG:  Solving for p, Initial residual = 0.000608473, Final residual = 8.93193e-08, No Iterations 277
time step continuity errors : sum local = 2.12381e-13, global = 1.76812e-15, cumulative = -2.40799e-13
ExecutionTime = 1.39 s  ClockTime = 2 s

Time = 0.124

Courant Number mean: 0.0213026 max: 0.118872
smoothSolver:  Solving for Ux, Initial residual = 0.00153205, Final residual = 4.95449e-08, No Iterations 6
smoothSolver:  Solving for Uy, Initial residual = 0.00138847, Final residual = 2.58007e-08, No Iterations 6
DICPCG:  Solving for p, Initial residual = 0.0041988, Final residual = 9.04096e-08, No Iterations 307
time step continuity errors : sum local = 2.1481e-13, global = 6.67507e-16, cumulative = -2.40132e-13
DICPCG:  Solving for p, Initial residual = 0.000600503, Final residual = 9.73184e-08, No Iterations 276
time step continuity errors : sum local = 2.29988e-13, global = 1.99965e-15, cumulative = -2.38132e-13
ExecutionTime = 1.42 s  ClockTime = 2 s

Time = 0.126

Courant Number mean: 0.0213024 max: 0.118692
smoothSolver:  Solving for Ux, Initial residual = 0.00151322, Final residual = 4.86049e-08, No Iterations 6
smoothSolver:  Solving for Uy, Initial residual = 0.00137361, Final residual = 2.53994e-08, No Iterations 6
DICPCG:  Solving for p, Initial residual = 0.00421374, Final residual = 9.04712e-08, No Iterations 307
time step continuity errors : sum local = 2.13612e-13, global = 8.41005e-16, cumulative = -2.37291e-13
DICPCG:  Solving for p, Initial residual = 0.000584497, Final residual = 9.56298e-08, No Iterations 276
time step continuity errors : sum local = 2.24573e-13, global = 1.83223e-15, cumulative = -2.35459e-13
ExecutionTime = 1.44 s  ClockTime = 2 s

Time = 0.128

Courant Number mean: 0.0213022 max: 0.11851
smoothSolver:  Solving for Ux, Initial residual = 0.001495, Final residual = 4.76896e-08, No Iterations 6
smoothSolver:  Solving for Uy, Initial residual = 0.00135933, Final residual = 2.50178e-08, No Iterations 6
DICPCG:  Solving for p, Initial residual = 0.0040645, Final residual = 8.87727e-08, No Iterations 307
time step continuity errors : sum local = 2.08306e-13, global = 8.40323e-16, cumulative = -2.34619e-13
DICPCG:  Solving for p, Initial residual = 0.00057931, Final residual = 9.23582e-08, No Iterations 276
time step continuity errors : sum local = 2.15603e-13, global = 1.9411e-15, cumulative = -2.32678e-13
ExecutionTime = 1.46 s  ClockTime = 2 s

Time = 0.13

Courant Number mean: 0.021302 max: 0.118326
smoothSolver:  Solving for Ux, Initial residual = 0.00147738, Final residual = 4.68051e-08, No Iterations 6
smoothSolver:  Solving for Uy, Initial residual = 0.00134535, Final residual = 2.46408e-08, No Iterations 6
DICPCG:  Solving for p, Initial residual = 0.00404353, Final residual = 9.83579e-08, No Iterations 306
time step continuity errors : sum local = 2.29465e-13, global = 7.71299e-16, cumulative = -2.31906e-13
DICPCG:  Solving for p, Initial residual = 0.000573343, Final residual = 9.06026e-08, No Iterations 276
time step continuity errors : sum local = 2.1034e-13, global = 2.14373e-15, cumulative = -2.29763e-13
ExecutionTime = 1.48 s  ClockTime = 2 s

Time = 0.132

Courant Number mean: 0.0213018 max: 0.11814
smoothSolver:  Solving for Ux, Initial residual = 0.00146037, Final residual = 4.59481e-08, No Iterations 6
smoothSolver:  Solving for Uy, Initial residual = 0.00133175, Final residual = 2.42713e-08, No Iterations 6
DICPCG:  Solving for p, Initial residual = 0.00400562, Final residual = 9.421e-08, No Iterations 305
time step continuity errors : sum local = 2.18569e-13, global = 2.28545e-16, cumulative = -2.29534e-13
DICPCG:  Solving for p, Initial residual = 0.000581791, Final residual = 8.80965e-08, No Iterations 276
time step continuity errors : sum local = 2.03393e-13, global = 1.6323e-15, cumulative = -2.27902e-13
ExecutionTime = 1.5 s  ClockTime = 2 s

Time = 0.134

Courant Number mean: 0.0213017 max: 0.117953
smoothSolver:  Solving for Ux, Initial residual = 0.00144385, Final residual = 4.5116e-08, No Iterations 6
smoothSolver:  Solving for Uy, Initial residual = 0.00131849, Final residual = 2.39083e-08, No Iterations 6
DICPCG:  Solving for p, Initial residual = 0.00387314, Final residual = 9.29652e-08, No Iterations 306
time step continuity errors : sum local = 2.14475e-13, global = 6.73749e-16, cumulative = -2.27228e-13
DICPCG:  Solving for p, Initial residual = 0.000560589, Final residual = 9.76538e-08, No Iterations 275
time step continuity errors : sum local = 2.2421e-13, global = 1.98637e-15, cumulative = -2.25242e-13
ExecutionTime = 1.52 s  ClockTime = 2 s

Time = 0.136

Courant Number mean: 0.0213015 max: 0.117769
smoothSolver:  Solving for Ux, Initial residual = 0.00142793, Final residual = 4.43072e-08, No Iterations 6
smoothSolver:  Solving for Uy, Initial residual = 0.00130569, Final residual = 2.35558e-08, No Iterations 6
DICPCG:  Solving for p, Initial residual = 0.00391993, Final residual = 9.84698e-08, No Iterations 305
time step continuity errors : sum local = 2.25917e-13, global = 6.34964e-16, cumulative = -2.24607e-13
DICPCG:  Solving for p, Initial residual = 0.000555059, Final residual = 9.55627e-08, No Iterations 275
time step continuity errors : sum local = 2.18215e-13, global = 1.90832e-15, cumulative = -2.22698e-13
ExecutionTime = 1.54 s  ClockTime = 2 s

Time = 0.138

Courant Number mean: 0.0213013 max: 0.117586
smoothSolver:  Solving for Ux, Initial residual = 0.00141264, Final residual = 4.3521e-08, No Iterations 6
smoothSolver:  Solving for Uy, Initial residual = 0.00129325, Final residual = 2.32124e-08, No Iterations 6
DICPCG:  Solving for p, Initial residual = 0.00368689, Final residual = 9.64601e-08, No Iterations 305
time step continuity errors : sum local = 2.2014e-13, global = 6.67053e-16, cumulative = -2.22031e-13
DICPCG:  Solving for p, Initial residual = 0.000545422, Final residual = 9.43278e-08, No Iterations 275
time step continuity errors : sum local = 2.14317e-13, global = 2.02276e-15, cumulative = -2.20009e-13
ExecutionTime = 1.56 s  ClockTime = 2 s

Time = 0.14

Courant Number mean: 0.0213012 max: 0.1174
smoothSolver:  Solving for Ux, Initial residual = 0.00139809, Final residual = 4.2759e-08, No Iterations 6
smoothSolver:  Solving for Uy, Initial residual = 0.00128103, Final residual = 2.2877e-08, No Iterations 6
DICPCG:  Solving for p, Initial residual = 0.00382778, Final residual = 9.9436e-08, No Iterations 308
time step continuity errors : sum local = 2.25736e-13, global = 7.24001e-16, cumulative = -2.19285e-13
DICPCG:  Solving for p, Initial residual = 0.000578209, Final residual = 9.51759e-08, No Iterations 249
time step continuity errors : sum local = 2.15072e-13, global = -8.23225e-16, cumulative = -2.20108e-13
ExecutionTime = 1.58 s  ClockTime = 2 s

Time = 0.142

Courant Number mean: 0.021301 max: 0.117214
smoothSolver:  Solving for Ux, Initial residual = 0.00138391, Final residual = 4.20263e-08, No Iterations 6
smoothSolver:  Solving for Uy, Initial residual = 0.00126918, Final residual = 9.94833e-08, No Iterations 5
DICPCG:  Solving for p, Initial residual = 0.00356191, Final residual = 9.8118e-08, No Iterations 306
time step continuity errors : sum local = 2.2159e-13, global = 7.61519e-16, cumulative = -2.19346e-13
DICPCG:  Solving for p, Initial residual = 0.000542957, Final residual = 9.4913e-08, No Iterations 275
time step continuity errors : sum local = 2.13424e-13, global = 2.38475e-15, cumulative = -2.16961e-13
ExecutionTime = 1.6 s  ClockTime = 2 s

Time = 0.144

Courant Number mean: 0.0213009 max: 0.117026
smoothSolver:  Solving for Ux, Initial residual = 0.00137006, Final residual = 4.13087e-08, No Iterations 6
smoothSolver:  Solving for Uy, Initial residual = 0.00125759, Final residual = 9.81472e-08, No Iterations 5
DICPCG:  Solving for p, Initial residual = 0.00387974, Final residual = 9.7468e-08, No Iterations 309
time step continuity errors : sum local = 2.19054e-13, global = 6.30979e-16, cumulative = -2.16331e-13
DICPCG:  Solving for p, Initial residual = 0.000579115, Final residual = 9.97016e-08, No Iterations 247
time step continuity errors : sum local = 2.23146e-13, global = -5.44102e-16, cumulative = -2.16875e-13
ExecutionTime = 1.62 s  ClockTime = 2 s

Time = 0.146

Courant Number mean: 0.0213007 max: 0.116838
smoothSolver:  Solving for Ux, Initial residual = 0.00135656, Final residual = 4.06174e-08, No Iterations 6
smoothSolver:  Solving for Uy, Initial residual = 0.00124632, Final residual = 9.6828e-08, No Iterations 5
DICPCG:  Solving for p, Initial residual = 0.00360546, Final residual = 9.33746e-08, No Iterations 296
time step continuity errors : sum local = 2.08853e-13, global = -1.39072e-15, cumulative = -2.18265e-13
DICPCG:  Solving for p, Initial residual = 0.000523713, Final residual = 9.6264e-08, No Iterations 274
time step continuity errors : sum local = 2.14405e-13, global = 2.00441e-15, cumulative = -2.16261e-13
ExecutionTime = 1.64 s  ClockTime = 2 s

Time = 0.148

Courant Number mean: 0.0213006 max: 0.116648
smoothSolver:  Solving for Ux, Initial residual = 0.00134336, Final residual = 3.99354e-08, No Iterations 6
smoothSolver:  Solving for Uy, Initial residual = 0.0012353, Final residual = 9.55562e-08, No Iterations 5
DICPCG:  Solving for p, Initial residual = 0.00360579, Final residual = 9.32594e-08, No Iterations 305
time step continuity errors : sum local = 2.07594e-13, global = 4.62025e-16, cumulative = -2.15799e-13
DICPCG:  Solving for p, Initial residual = 0.000531652, Final residual = 9.91569e-08, No Iterations 249
time step continuity errors : sum local = 2.19825e-13, global = -5.99217e-16, cumulative = -2.16398e-13
ExecutionTime = 1.66 s  ClockTime = 2 s

Time = 0.15

Courant Number mean: 0.0213005 max: 0.116458
smoothSolver:  Solving for Ux, Initial residual = 0.00133043, Final residual = 3.9274e-08, No Iterations 6
smoothSolver:  Solving for Uy, Initial residual = 0.00122454, Final residual = 9.43031e-08, No Iterations 5
DICPCG:  Solving for p, Initial residual = 0.00340113, Final residual = 9.5483e-08, No Iterations 305
time step continuity errors : sum local = 2.11554e-13, global = 9.04362e-16, cumulative = -2.15494e-13
DICPCG:  Solving for p, Initial residual = 0.000516382, Final residual = 9.56236e-08, No Iterations 274
time step continuity errors : sum local = 2.11015e-13, global = 2.40655e-15, cumulative = -2.13087e-13
ExecutionTime = 1.68 s  ClockTime = 2 s

Time = 0.152

Courant Number mean: 0.0213003 max: 0.116267
smoothSolver:  Solving for Ux, Initial residual = 0.00131778, Final residual = 3.86294e-08, No Iterations 6
smoothSolver:  Solving for Uy, Initial residual = 0.00121407, Final residual = 9.30731e-08, No Iterations 5
DICPCG:  Solving for p, Initial residual = 0.00333636, Final residual = 9.14483e-08, No Iterations 305
time step continuity errors : sum local = 2.01705e-13, global = 9.07272e-16, cumulative = -2.1218e-13
DICPCG:  Solving for p, Initial residual = 0.000506678, Final residual = 9.90078e-08, No Iterations 248
time step continuity errors : sum local = 2.17542e-13, global = -5.42621e-16, cumulative = -2.12723e-13
ExecutionTime = 1.7 s  ClockTime = 2 s

Time = 0.154

Courant Number mean: 0.0213002 max: 0.116076
smoothSolver:  Solving for Ux, Initial residual = 0.00130539, Final residual = 3.79998e-08, No Iterations 6
smoothSolver:  Solving for Uy, Initial residual = 0.00120383, Final residual = 9.18831e-08, No Iterations 5
DICPCG:  Solving for p, Initial residual = 0.00335809, Final residual = 9.95523e-08, No Iterations 304
time step continuity errors : sum local = 2.18649e-13, global = 9.66229e-16, cumulative = -2.11756e-13
DICPCG:  Solving for p, Initial residual = 0.000499843, Final residual = 9.16398e-08, No Iterations 274
time step continuity errors : sum local = 2.00528e-13, global = 2.43497e-15, cumulative = -2.09321e-13
ExecutionTime = 1.72 s  ClockTime = 2 s

Time = 0.156

Courant Number mean: 0.0213001 max: 0.115884
smoothSolver:  Solving for Ux, Initial residual = 0.00129326, Final residual = 3.73852e-08, No Iterations 6
smoothSolver:  Solving for Uy, Initial residual = 0.00119385, Final residual = 9.07324e-08, No Iterations 5
DICPCG:  Solving for p, Initial residual = 0.00329159, Final residual = 9.66147e-08, No Iterations 304
time step continuity errors : sum local = 2.11287e-13, global = 9.66815e-16, cumulative = -2.08355e-13
DICPCG:  Solving for p, Initial residual = 0.000493986, Final residual = 9.80955e-08, No Iterations 247
time step continuity errors : sum local = 2.13706e-13, global = -4.52401e-16, cumulative = -2.08807e-13
ExecutionTime = 1.74 s  ClockTime = 2 s

Time = 0.158

Courant Number mean: 0.0213 max: 0.115691
smoothSolver:  Solving for Ux, Initial residual = 0.00128138, Final residual = 3.67855e-08, No Iterations 6
smoothSolver:  Solving for Uy, Initial residual = 0.00118421, Final residual = 8.96105e-08, No Iterations 5
DICPCG:  Solving for p, Initial residual = 0.00322893, Final residual = 9.74718e-08, No Iterations 304
time step continuity errors : sum local = 2.12223e-13, global = 1.10794e-15, cumulative = -2.07699e-13
DICPCG:  Solving for p, Initial residual = 0.000491773, Final residual = 9.9463e-08, No Iterations 247
time step continuity errors : sum local = 2.1575e-13, global = -4.28526e-16, cumulative = -2.08128e-13
ExecutionTime = 1.77 s  ClockTime = 2 s

Time = 0.16

Courant Number mean: 0.0212998 max: 0.115498
smoothSolver:  Solving for Ux, Initial residual = 0.00126978, Final residual = 3.6204e-08, No Iterations 6
smoothSolver:  Solving for Uy, Initial residual = 0.00117476, Final residual = 8.84956e-08, No Iterations 5
DICPCG:  Solving for p, Initial residual = 0.0032511, Final residual = 9.54533e-08, No Iterations 304
time step continuity errors : sum local = 2.06901e-13, global = 1.1843e-15, cumulative = -2.06943e-13
DICPCG:  Solving for p, Initial residual = 0.00048995, Final residual = 9.43129e-08, No Iterations 247
time step continuity errors : sum local = 2.03648e-13, global = -4.99453e-16, cumulative = -2.07443e-13
ExecutionTime = 1.79 s  ClockTime = 2 s

Time = 0.162

Courant Number mean: 0.0212997 max: 0.115305
smoothSolver:  Solving for Ux, Initial residual = 0.00125842, Final residual = 3.56385e-08, No Iterations 6
smoothSolver:  Solving for Uy, Initial residual = 0.00116558, Final residual = 8.73961e-08, No Iterations 5
DICPCG:  Solving for p, Initial residual = 0.00303534, Final residual = 9.46007e-08, No Iterations 304
time step continuity errors : sum local = 2.04158e-13, global = 1.29934e-15, cumulative = -2.06143e-13
DICPCG:  Solving for p, Initial residual = 0.000479611, Final residual = 9.16788e-08, No Iterations 247
time step continuity errors : sum local = 1.97143e-13, global = -5.62406e-16, cumulative = -2.06706e-13
ExecutionTime = 1.83 s  ClockTime = 2 s

Time = 0.164

Courant Number mean: 0.0212996 max: 0.115112
smoothSolver:  Solving for Ux, Initial residual = 0.00124732, Final residual = 3.50875e-08, No Iterations 6
smoothSolver:  Solving for Uy, Initial residual = 0.00115659, Final residual = 8.6319e-08, No Iterations 5
DICPCG:  Solving for p, Initial residual = 0.00303508, Final residual = 9.87896e-08, No Iterations 303
time step continuity errors : sum local = 2.12312e-13, global = 1.47535e-15, cumulative = -2.0523e-13
DICPCG:  Solving for p, Initial residual = 0.000474981, Final residual = 9.96034e-08, No Iterations 246
time step continuity errors : sum local = 2.133e-13, global = -4.72932e-16, cumulative = -2.05703e-13
ExecutionTime = 1.85 s  ClockTime = 2 s

Time = 0.166

Courant Number mean: 0.0212995 max: 0.114918
smoothSolver:  Solving for Ux, Initial residual = 0.00123643, Final residual = 3.45498e-08, No Iterations 6
smoothSolver:  Solving for Uy, Initial residual = 0.00114785, Final residual = 8.52676e-08, No Iterations 5
DICPCG:  Solving for p, Initial residual = 0.00296737, Final residual = 9.84032e-08, No Iterations 303
time step continuity errors : sum local = 2.10621e-13, global = 1.52006e-15, cumulative = -2.04183e-13
DICPCG:  Solving for p, Initial residual = 0.000468487, Final residual = 9.77071e-08, No Iterations 246
time step continuity errors : sum local = 2.08411e-13, global = -5.15221e-16, cumulative = -2.04698e-13
ExecutionTime = 1.87 s  ClockTime = 2 s

Time = 0.168

Courant Number mean: 0.0212994 max: 0.114725
smoothSolver:  Solving for Ux, Initial residual = 0.00122575, Final residual = 3.40251e-08, No Iterations 6
smoothSolver:  Solving for Uy, Initial residual = 0.00113932, Final residual = 8.42368e-08, No Iterations 5
DICPCG:  Solving for p, Initial residual = 0.00295387, Final residual = 9.64726e-08, No Iterations 303
time step continuity errors : sum local = 2.05674e-13, global = 1.52313e-15, cumulative = -2.03175e-13
DICPCG:  Solving for p, Initial residual = 0.000462825, Final residual = 9.62883e-08, No Iterations 246
time step continuity errors : sum local = 2.04588e-13, global = -5.49138e-16, cumulative = -2.03724e-13
ExecutionTime = 1.89 s  ClockTime = 2 s

Time = 0.17

Courant Number mean: 0.0212993 max: 0.114531
smoothSolver:  Solving for Ux, Initial residual = 0.00121528, Final residual = 3.35128e-08, No Iterations 6
smoothSolver:  Solving for Uy, Initial residual = 0.00113104, Final residual = 8.32294e-08, No Iterations 5
DICPCG:  Solving for p, Initial residual = 0.00296728, Final residual = 9.48112e-08, No Iterations 296
time step continuity errors : sum local = 2.01351e-13, global = 1.06683e-15, cumulative = -2.02658e-13
DICPCG:  Solving for p, Initial residual = 0.000457185, Final residual = 9.66285e-08, No Iterations 246
time step continuity errors : sum local = 2.04529e-13, global = -5.50579e-16, cumulative = -2.03208e-13
ExecutionTime = 1.91 s  ClockTime = 2 s

Time = 0.172

Courant Number mean: 0.0212992 max: 0.114337
smoothSolver:  Solving for Ux, Initial residual = 0.00120502, Final residual = 3.30124e-08, No Iterations 6
smoothSolver:  Solving for Uy, Initial residual = 0.00112299, Final residual = 8.22446e-08, No Iterations 5
DICPCG:  Solving for p, Initial residual = 0.00304011, Final residual = 9.72357e-08, No Iterations 294
time step continuity errors : sum local = 2.05715e-13, global = 1.25034e-15, cumulative = -2.01958e-13
DICPCG:  Solving for p, Initial residual = 0.000454792, Final residual = 9.33944e-08, No Iterations 247
time step continuity errors : sum local = 1.96944e-13, global = -5.50351e-16, cumulative = -2.02508e-13
ExecutionTime = 1.93 s  ClockTime = 2 s

Time = 0.174

Courant Number mean: 0.0212991 max: 0.114144
smoothSolver:  Solving for Ux, Initial residual = 0.00119495, Final residual = 3.25222e-08, No Iterations 6
smoothSolver:  Solving for Uy, Initial residual = 0.00111521, Final residual = 8.12809e-08, No Iterations 5
DICPCG:  Solving for p, Initial residual = 0.00323027, Final residual = 9.91544e-08, No Iterations 306
time step continuity errors : sum local = 2.09015e-13, global = 1.202e-15, cumulative = -2.01306e-13
DICPCG:  Solving for p, Initial residual = 0.000482956, Final residual = 9.38699e-08, No Iterations 245
time step continuity errors : sum local = 1.97267e-13, global = -5.87787e-16, cumulative = -2.01894e-13
ExecutionTime = 1.95 s  ClockTime = 2 s

Time = 0.176

Courant Number mean: 0.021299 max: 0.11395
smoothSolver:  Solving for Ux, Initial residual = 0.00118507, Final residual = 3.2051e-08, No Iterations 6
smoothSolver:  Solving for Uy, Initial residual = 0.00110765, Final residual = 8.03021e-08, No Iterations 5
DICPCG:  Solving for p, Initial residual = 0.0031634, Final residual = 9.80658e-08, No Iterations 307
time step continuity errors : sum local = 2.05918e-13, global = 1.49377e-15, cumulative = -2.004e-13
DICPCG:  Solving for p, Initial residual = 0.000490372, Final residual = 9.23215e-08, No Iterations 245
time step continuity errors : sum local = 1.93192e-13, global = -7.50432e-16, cumulative = -2.01151e-13
ExecutionTime = 1.97 s  ClockTime = 2 s

Time = 0.178

Courant Number mean: 0.0212989 max: 0.113756
smoothSolver:  Solving for Ux, Initial residual = 0.00117539, Final residual = 3.15897e-08, No Iterations 6
smoothSolver:  Solving for Uy, Initial residual = 0.00110051, Final residual = 7.93949e-08, No Iterations 5
DICPCG:  Solving for p, Initial residual = 0.00300327, Final residual = 8.94157e-08, No Iterations 307
time step continuity errors : sum local = 1.87024e-13, global = 1.20255e-15, cumulative = -1.99948e-13
DICPCG:  Solving for p, Initial residual = 0.000464613, Final residual = 9.96621e-08, No Iterations 244
time step continuity errors : sum local = 2.07805e-13, global = -6.69226e-16, cumulative = -2.00617e-13
ExecutionTime = 1.99 s  ClockTime = 2 s

Time = 0.18

Courant Number mean: 0.0212988 max: 0.113563
smoothSolver:  Solving for Ux, Initial residual = 0.00116588, Final residual = 3.11397e-08, No Iterations 6
smoothSolver:  Solving for Uy, Initial residual = 0.00109334, Final residual = 7.84793e-08, No Iterations 5
DICPCG:  Solving for p, Initial residual = 0.00299756, Final residual = 9.1952e-08, No Iterations 306
time step continuity errors : sum local = 1.91646e-13, global = 1.23096e-15, cumulative = -1.99386e-13
DICPCG:  Solving for p, Initial residual = 0.00045152, Final residual = 9.10984e-08, No Iterations 245
time step continuity errors : sum local = 1.89294e-13, global = -1.05029e-15, cumulative = -2.00437e-13
ExecutionTime = 2.01 s  ClockTime = 2 s

Time = 0.182

Courant Number mean: 0.0212987 max: 0.11337
smoothSolver:  Solving for Ux, Initial residual = 0.00115655, Final residual = 3.06973e-08, No Iterations 6
smoothSolver:  Solving for Uy, Initial residual = 0.00108631, Final residual = 7.75961e-08, No Iterations 5
DICPCG:  Solving for p, Initial residual = 0.00296705, Final residual = 9.75577e-08, No Iterations 297
time step continuity errors : sum local = 2.02625e-13, global = 1.4349e-15, cumulative = -1.99002e-13
DICPCG:  Solving for p, Initial residual = 0.000454738, Final residual = 9.53064e-08, No Iterations 245
time step continuity errors : sum local = 1.97353e-13, global = -3.40701e-16, cumulative = -1.99343e-13
ExecutionTime = 2.03 s  ClockTime = 2 s

Time = 0.184

Courant Number mean: 0.0212987 max: 0.113178
smoothSolver:  Solving for Ux, Initial residual = 0.00114739, Final residual = 3.02642e-08, No Iterations 6
smoothSolver:  Solving for Uy, Initial residual = 0.00107932, Final residual = 7.67191e-08, No Iterations 5
DICPCG:  Solving for p, Initial residual = 0.00296125, Final residual = 9.69125e-08, No Iterations 304
time step continuity errors : sum local = 2.00593e-13, global = 1.30146e-15, cumulative = -1.98041e-13
DICPCG:  Solving for p, Initial residual = 0.000445408, Final residual = 9.01829e-08, No Iterations 245
time step continuity errors : sum local = 1.86115e-13, global = -6.34789e-16, cumulative = -1.98676e-13
ExecutionTime = 2.05 s  ClockTime = 2 s

Time = 0.186

Courant Number mean: 0.0212986 max: 0.112985
smoothSolver:  Solving for Ux, Initial residual = 0.00113838, Final residual = 2.9841e-08, No Iterations 6
smoothSolver:  Solving for Uy, Initial residual = 0.00107248, Final residual = 7.58588e-08, No Iterations 5
DICPCG:  Solving for p, Initial residual = 0.00286058, Final residual = 9.59289e-08, No Iterations 305
time step continuity errors : sum local = 1.97896e-13, global = 1.23201e-15, cumulative = -1.97444e-13
DICPCG:  Solving for p, Initial residual = 0.000434365, Final residual = 9.7788e-08, No Iterations 244
time step continuity errors : sum local = 2.01154e-13, global = -8.95347e-16, cumulative = -1.98339e-13
ExecutionTime = 2.07 s  ClockTime = 2 s

Time = 0.188

Courant Number mean: 0.0212985 max: 0.112793
smoothSolver:  Solving for Ux, Initial residual = 0.00112952, Final residual = 2.94278e-08, No Iterations 6
smoothSolver:  Solving for Uy, Initial residual = 0.00106579, Final residual = 7.50173e-08, No Iterations 5
DICPCG:  Solving for p, Initial residual = 0.00295638, Final residual = 9.14532e-08, No Iterations 295
time step continuity errors : sum local = 1.88002e-13, global = 4.74886e-16, cumulative = -1.97864e-13
DICPCG:  Solving for p, Initial residual = 0.000435121, Final residual = 9.91029e-08, No Iterations 244
time step continuity errors : sum local = 2.03097e-13, global = -8.10918e-16, cumulative = -1.98675e-13
ExecutionTime = 2.09 s  ClockTime = 2 s

Time = 0.19

Courant Number mean: 0.0212985 max: 0.112602
smoothSolver:  Solving for Ux, Initial residual = 0.00112082, Final residual = 2.90213e-08, No Iterations 6
smoothSolver:  Solving for Uy, Initial residual = 0.00105922, Final residual = 7.42127e-08, No Iterations 5
DICPCG:  Solving for p, Initial residual = 0.00265601, Final residual = 8.76654e-08, No Iterations 305
time step continuity errors : sum local = 1.79593e-13, global = 1.12757e-15, cumulative = -1.97548e-13
DICPCG:  Solving for p, Initial residual = 0.000416491, Final residual = 9.48787e-08, No Iterations 244
time step continuity errors : sum local = 1.93835e-13, global = -9.27231e-16, cumulative = -1.98475e-13
ExecutionTime = 2.11 s  ClockTime = 2 s

Time = 0.192

Courant Number mean: 0.0212984 max: 0.112414
smoothSolver:  Solving for Ux, Initial residual = 0.0011123, Final residual = 2.86242e-08, No Iterations 6
smoothSolver:  Solving for Uy, Initial residual = 0.00105276, Final residual = 7.34203e-08, No Iterations 5
DICPCG:  Solving for p, Initial residual = 0.00264617, Final residual = 8.95197e-08, No Iterations 305
time step continuity errors : sum local = 1.82834e-13, global = 1.1157e-15, cumulative = -1.97359e-13
DICPCG:  Solving for p, Initial residual = 0.000415493, Final residual = 9.26232e-08, No Iterations 244
time step continuity errors : sum local = 1.88673e-13, global = -9.31725e-16, cumulative = -1.98291e-13
ExecutionTime = 2.13 s  ClockTime = 2 s

Time = 0.194

Courant Number mean: 0.0212983 max: 0.11223
smoothSolver:  Solving for Ux, Initial residual = 0.00110395, Final residual = 2.82368e-08, No Iterations 6
smoothSolver:  Solving for Uy, Initial residual = 0.00104636, Final residual = 7.2636e-08, No Iterations 5
DICPCG:  Solving for p, Initial residual = 0.00272966, Final residual = 9.98564e-08, No Iterations 296
time step continuity errors : sum local = 2.0336e-13, global = 1.21939e-15, cumulative = -1.97072e-13
DICPCG:  Solving for p, Initial residual = 0.000410584, Final residual = 9.48969e-08, No Iterations 244
time step continuity errors : sum local = 1.92766e-13, global = -9.94078e-16, cumulative = -1.98066e-13
[...]
time step continuity errors : sum local = 1.43488e-13, global = -5.16676e-15, cumulative = -1.09431e-11
ExecutionTime = 73.87 s  ClockTime = 78 s

Time = 9.582

Courant Number mean: 0.0213205 max: 0.100738
smoothSolver:  Solving for Ux, Initial residual = 1.60766e-05, Final residual = 1.08867e-08, No Iterations 2
smoothSolver:  Solving for Uy, Initial residual = 3.78164e-05, Final residual = 2.57057e-08, No Iterations 2
DICPCG:  Solving for p, Initial residual = 1.82901e-05, Final residual = 9.89347e-08, No Iterations 187
time step continuity errors : sum local = 1.44268e-13, global = -1.47502e-15, cumulative = -1.09446e-11
DICPCG:  Solving for p, Initial residual = 2.59594e-06, Final residual = 9.83193e-08, No Iterations 142
time step continuity errors : sum local = 1.43361e-13, global = -5.16277e-15, cumulative = -1.09497e-11
ExecutionTime = 73.88 s  ClockTime = 78 s

Time = 9.584

Courant Number mean: 0.0213204 max: 0.100738
smoothSolver:  Solving for Ux, Initial residual = 1.60645e-05, Final residual = 1.08781e-08, No Iterations 2
smoothSolver:  Solving for Uy, Initial residual = 3.7797e-05, Final residual = 2.56873e-08, No Iterations 2
DICPCG:  Solving for p, Initial residual = 1.8278e-05, Final residual = 9.88889e-08, No Iterations 187
time step continuity errors : sum local = 1.4419e-13, global = -1.47557e-15, cumulative = -1.09512e-11
DICPCG:  Solving for p, Initial residual = 2.59406e-06, Final residual = 9.82435e-08, No Iterations 142
time step continuity errors : sum local = 1.43239e-13, global = -5.15917e-15, cumulative = -1.09564e-11
ExecutionTime = 73.89 s  ClockTime = 78 s

Time = 9.586

Courant Number mean: 0.0213204 max: 0.100738
smoothSolver:  Solving for Ux, Initial residual = 1.60524e-05, Final residual = 1.08695e-08, No Iterations 2
smoothSolver:  Solving for Uy, Initial residual = 3.77776e-05, Final residual = 2.5669e-08, No Iterations 2
DICPCG:  Solving for p, Initial residual = 1.82662e-05, Final residual = 9.88454e-08, No Iterations 187
time step continuity errors : sum local = 1.44115e-13, global = -1.47629e-15, cumulative = -1.09578e-11
DICPCG:  Solving for p, Initial residual = 2.59219e-06, Final residual = 9.81709e-08, No Iterations 142
time step continuity errors : sum local = 1.43122e-13, global = -5.15593e-15, cumulative = -1.0963e-11
ExecutionTime = 73.9 s  ClockTime = 78 s

Time = 9.588

Courant Number mean: 0.0213203 max: 0.100737
smoothSolver:  Solving for Ux, Initial residual = 1.60403e-05, Final residual = 1.08609e-08, No Iterations 2
smoothSolver:  Solving for Uy, Initial residual = 3.77582e-05, Final residual = 2.56506e-08, No Iterations 2
DICPCG:  Solving for p, Initial residual = 1.82548e-05, Final residual = 9.88044e-08, No Iterations 187
time step continuity errors : sum local = 1.44044e-13, global = -1.47708e-15, cumulative = -1.09645e-11
DICPCG:  Solving for p, Initial residual = 2.59032e-06, Final residual = 9.81012e-08, No Iterations 142
time step continuity errors : sum local = 1.4301e-13, global = -5.15303e-15, cumulative = -1.09696e-11
ExecutionTime = 73.92 s  ClockTime = 78 s

Time = 9.59

Courant Number mean: 0.0213202 max: 0.100737
smoothSolver:  Solving for Ux, Initial residual = 1.60282e-05, Final residual = 1.08524e-08, No Iterations 2
smoothSolver:  Solving for Uy, Initial residual = 3.77388e-05, Final residual = 2.56323e-08, No Iterations 2
DICPCG:  Solving for p, Initial residual = 1.82438e-05, Final residual = 9.87653e-08, No Iterations 187
time step continuity errors : sum local = 1.43976e-13, global = -1.47801e-15, cumulative = -1.09711e-11
DICPCG:  Solving for p, Initial residual = 2.58846e-06, Final residual = 9.80344e-08, No Iterations 142
time step continuity errors : sum local = 1.42901e-13, global = -5.15045e-15, cumulative = -1.09762e-11
ExecutionTime = 73.93 s  ClockTime = 78 s

Time = 9.592

Courant Number mean: 0.0213201 max: 0.100737
smoothSolver:  Solving for Ux, Initial residual = 1.60161e-05, Final residual = 1.08438e-08, No Iterations 2
smoothSolver:  Solving for Uy, Initial residual = 3.77194e-05, Final residual = 2.5614e-08, No Iterations 2
DICPCG:  Solving for p, Initial residual = 1.82332e-05, Final residual = 9.87283e-08, No Iterations 187
time step continuity errors : sum local = 1.43911e-13, global = -1.47906e-15, cumulative = -1.09777e-11
DICPCG:  Solving for p, Initial residual = 2.5866e-06, Final residual = 9.79701e-08, No Iterations 142
time step continuity errors : sum local = 1.42797e-13, global = -5.14822e-15, cumulative = -1.09829e-11
ExecutionTime = 73.95 s  ClockTime = 78 s

Time = 9.594

Courant Number mean: 0.02132 max: 0.100737
smoothSolver:  Solving for Ux, Initial residual = 1.6004e-05, Final residual = 1.08352e-08, No Iterations 2
smoothSolver:  Solving for Uy, Initial residual = 3.76999e-05, Final residual = 2.55957e-08, No Iterations 2
DICPCG:  Solving for p, Initial residual = 1.82231e-05, Final residual = 9.86937e-08, No Iterations 187
time step continuity errors : sum local = 1.4385e-13, global = -1.48024e-15, cumulative = -1.09844e-11
DICPCG:  Solving for p, Initial residual = 2.58474e-06, Final residual = 9.79084e-08, No Iterations 142
time step continuity errors : sum local = 1.42696e-13, global = -5.14623e-15, cumulative = -1.09895e-11
ExecutionTime = 73.96 s  ClockTime = 78 s

Time = 9.596

Courant Number mean: 0.0213199 max: 0.100736
smoothSolver:  Solving for Ux, Initial residual = 1.5992e-05, Final residual = 1.08267e-08, No Iterations 2
smoothSolver:  Solving for Uy, Initial residual = 3.76805e-05, Final residual = 2.55774e-08, No Iterations 2
DICPCG:  Solving for p, Initial residual = 1.82136e-05, Final residual = 9.86614e-08, No Iterations 187
time step continuity errors : sum local = 1.43792e-13, global = -1.48149e-15, cumulative = -1.0991e-11
DICPCG:  Solving for p, Initial residual = 2.58289e-06, Final residual = 9.78489e-08, No Iterations 142
time step continuity errors : sum local = 1.42598e-13, global = -5.14462e-15, cumulative = -1.09961e-11
ExecutionTime = 73.97 s  ClockTime = 78 s

Time = 9.598

Courant Number mean: 0.0213198 max: 0.100736
smoothSolver:  Solving for Ux, Initial residual = 1.59799e-05, Final residual = 1.08181e-08, No Iterations 2
smoothSolver:  Solving for Uy, Initial residual = 3.76611e-05, Final residual = 2.55591e-08, No Iterations 2
DICPCG:  Solving for p, Initial residual = 1.82046e-05, Final residual = 9.86313e-08, No Iterations 187
time step continuity errors : sum local = 1.43737e-13, global = -1.48286e-15, cumulative = -1.09976e-11
DICPCG:  Solving for p, Initial residual = 2.58104e-06, Final residual = 9.77915e-08, No Iterations 142
time step continuity errors : sum local = 1.42504e-13, global = -5.14327e-15, cumulative = -1.10028e-11
ExecutionTime = 73.99 s  ClockTime = 78 s

Time = 9.6

Courant Number mean: 0.0213197 max: 0.100736
smoothSolver:  Solving for Ux, Initial residual = 1.59678e-05, Final residual = 1.08096e-08, No Iterations 2
smoothSolver:  Solving for Uy, Initial residual = 3.76416e-05, Final residual = 2.55409e-08, No Iterations 2
DICPCG:  Solving for p, Initial residual = 1.81964e-05, Final residual = 9.86035e-08, No Iterations 187
time step continuity errors : sum local = 1.43685e-13, global = -1.4843e-15, cumulative = -1.10042e-11
DICPCG:  Solving for p, Initial residual = 2.57919e-06, Final residual = 9.77361e-08, No Iterations 142
time step continuity errors : sum local = 1.42412e-13, global = -5.14213e-15, cumulative = -1.10094e-11
ExecutionTime = 74 s  ClockTime = 78 s

Time = 9.602

Courant Number mean: 0.0213196 max: 0.100736
smoothSolver:  Solving for Ux, Initial residual = 1.59558e-05, Final residual = 1.0801e-08, No Iterations 2
smoothSolver:  Solving for Uy, Initial residual = 3.76222e-05, Final residual = 2.55226e-08, No Iterations 2
DICPCG:  Solving for p, Initial residual = 1.8189e-05, Final residual = 9.85771e-08, No Iterations 187
time step continuity errors : sum local = 1.43636e-13, global = -1.48579e-15, cumulative = -1.10109e-11
DICPCG:  Solving for p, Initial residual = 2.57735e-06, Final residual = 9.76824e-08, No Iterations 142
time step continuity errors : sum local = 1.42323e-13, global = -5.14117e-15, cumulative = -1.1016e-11
ExecutionTime = 74.02 s  ClockTime = 78 s

Time = 9.604

Courant Number mean: 0.0213195 max: 0.100735
smoothSolver:  Solving for Ux, Initial residual = 1.59438e-05, Final residual = 1.07925e-08, No Iterations 2
smoothSolver:  Solving for Uy, Initial residual = 3.76027e-05, Final residual = 2.55044e-08, No Iterations 2
DICPCG:  Solving for p, Initial residual = 1.81829e-05, Final residual = 9.85518e-08, No Iterations 187
time step continuity errors : sum local = 1.43588e-13, global = -1.4874e-15, cumulative = -1.10175e-11
DICPCG:  Solving for p, Initial residual = 2.5755e-06, Final residual = 9.76301e-08, No Iterations 142
time step continuity errors : sum local = 1.42236e-13, global = -5.14039e-15, cumulative = -1.10226e-11
ExecutionTime = 74.03 s  ClockTime = 78 s

Time = 9.606

Courant Number mean: 0.0213194 max: 0.100735
smoothSolver:  Solving for Ux, Initial residual = 1.59317e-05, Final residual = 1.0784e-08, No Iterations 2
smoothSolver:  Solving for Uy, Initial residual = 3.75833e-05, Final residual = 2.54861e-08, No Iterations 2
DICPCG:  Solving for p, Initial residual = 1.81785e-05, Final residual = 9.85271e-08, No Iterations 187
time step continuity errors : sum local = 1.43541e-13, global = -1.48896e-15, cumulative = -1.10241e-11
DICPCG:  Solving for p, Initial residual = 2.57366e-06, Final residual = 9.75787e-08, No Iterations 142
time step continuity errors : sum local = 1.4215e-13, global = -5.13967e-15, cumulative = -1.10293e-11
ExecutionTime = 74.05 s  ClockTime = 78 s

Time = 9.608

Courant Number mean: 0.0213193 max: 0.100735
smoothSolver:  Solving for Ux, Initial residual = 1.59197e-05, Final residual = 1.07755e-08, No Iterations 2
smoothSolver:  Solving for Uy, Initial residual = 3.75638e-05, Final residual = 2.54679e-08, No Iterations 2
DICPCG:  Solving for p, Initial residual = 1.81766e-05, Final residual = 9.85031e-08, No Iterations 187
time step continuity errors : sum local = 1.43495e-13, global = -1.49056e-15, cumulative = -1.10308e-11
DICPCG:  Solving for p, Initial residual = 2.57182e-06, Final residual = 9.75275e-08, No Iterations 142
time step continuity errors : sum local = 1.42065e-13, global = -5.139e-15, cumulative = -1.10359e-11
ExecutionTime = 74.06 s  ClockTime = 78 s

Time = 9.61

Courant Number mean: 0.0213192 max: 0.100735
smoothSolver:  Solving for Ux, Initial residual = 1.59077e-05, Final residual = 1.0767e-08, No Iterations 2
smoothSolver:  Solving for Uy, Initial residual = 3.75444e-05, Final residual = 2.54497e-08, No Iterations 2
DICPCG:  Solving for p, Initial residual = 1.81791e-05, Final residual = 9.848e-08, No Iterations 187
time step continuity errors : sum local = 1.43451e-13, global = -1.49206e-15, cumulative = -1.10374e-11
DICPCG:  Solving for p, Initial residual = 2.56998e-06, Final residual = 9.74762e-08, No Iterations 142
time step continuity errors : sum local = 1.41979e-13, global = -5.13817e-15, cumulative = -1.10425e-11
ExecutionTime = 74.07 s  ClockTime = 78 s

Time = 9.612

Courant Number mean: 0.0213191 max: 0.100735
smoothSolver:  Solving for Ux, Initial residual = 1.58957e-05, Final residual = 1.07584e-08, No Iterations 2
smoothSolver:  Solving for Uy, Initial residual = 3.7525e-05, Final residual = 2.54315e-08, No Iterations 2
DICPCG:  Solving for p, Initial residual = 1.81893e-05, Final residual = 9.84568e-08, No Iterations 187
time step continuity errors : sum local = 1.43406e-13, global = -1.49334e-15, cumulative = -1.1044e-11
DICPCG:  Solving for p, Initial residual = 2.56815e-06, Final residual = 9.7424e-08, No Iterations 142
time step continuity errors : sum local = 1.41892e-13, global = -5.13707e-15, cumulative = -1.10492e-11
ExecutionTime = 74.09 s  ClockTime = 78 s

Time = 9.614

Courant Number mean: 0.021319 max: 0.100734
smoothSolver:  Solving for Ux, Initial residual = 1.58837e-05, Final residual = 1.07499e-08, No Iterations 2
smoothSolver:  Solving for Uy, Initial residual = 3.75055e-05, Final residual = 2.54133e-08, No Iterations 2
DICPCG:  Solving for p, Initial residual = 1.82168e-05, Final residual = 9.84287e-08, No Iterations 187
time step continuity errors : sum local = 1.43354e-13, global = -1.49372e-15, cumulative = -1.10506e-11
DICPCG:  Solving for p, Initial residual = 2.56637e-06, Final residual = 9.73691e-08, No Iterations 142
time step continuity errors : sum local = 1.41801e-13, global = -5.13512e-15, cumulative = -1.10558e-11
ExecutionTime = 74.1 s  ClockTime = 78 s

Time = 9.616

Courant Number mean: 0.0213189 max: 0.100734
smoothSolver:  Solving for Ux, Initial residual = 1.58717e-05, Final residual = 1.07415e-08, No Iterations 2
smoothSolver:  Solving for Uy, Initial residual = 3.7486e-05, Final residual = 2.53952e-08, No Iterations 2
DICPCG:  Solving for p, Initial residual = 1.82942e-05, Final residual = 9.84044e-08, No Iterations 187
time step continuity errors : sum local = 1.43308e-13, global = -1.49022e-15, cumulative = -1.10573e-11
DICPCG:  Solving for p, Initial residual = 2.56485e-06, Final residual = 9.73053e-08, No Iterations 142
time step continuity errors : sum local = 1.41698e-13, global = -5.13034e-15, cumulative = -1.10624e-11
ExecutionTime = 74.11 s  ClockTime = 78 s

Time = 9.618

Courant Number mean: 0.0213189 max: 0.100734
smoothSolver:  Solving for Ux, Initial residual = 1.58597e-05, Final residual = 1.0733e-08, No Iterations 2
smoothSolver:  Solving for Uy, Initial residual = 3.74666e-05, Final residual = 2.5377e-08, No Iterations 2
DICPCG:  Solving for p, Initial residual = 1.86634e-05, Final residual = 9.8894e-08, No Iterations 187
time step continuity errors : sum local = 1.4401e-13, global = -1.44319e-15, cumulative = -1.10638e-11
DICPCG:  Solving for p, Initial residual = 2.56829e-06, Final residual = 9.71962e-08, No Iterations 142
time step continuity errors : sum local = 1.41528e-13, global = -5.10548e-15, cumulative = -1.1069e-11
ExecutionTime = 74.12 s  ClockTime = 78 s

Time = 9.62

Courant Number mean: 0.0213188 max: 0.100734
smoothSolver:  Solving for Ux, Initial residual = 1.58477e-05, Final residual = 1.07244e-08, No Iterations 2
smoothSolver:  Solving for Uy, Initial residual = 3.7447e-05, Final residual = 2.53587e-08, No Iterations 2
DICPCG:  Solving for p, Initial residual = 1.88716e-05, Final residual = 9.98284e-08, No Iterations 187
time step continuity errors : sum local = 1.45359e-13, global = -1.42486e-15, cumulative = -1.10704e-11
DICPCG:  Solving for p, Initial residual = 2.56956e-06, Final residual = 9.71158e-08, No Iterations 142
time step continuity errors : sum local = 1.414e-13, global = -5.10362e-15, cumulative = -1.10755e-11
ExecutionTime = 74.13 s  ClockTime = 78 s

Time = 9.622

Courant Number mean: 0.0213187 max: 0.100733
smoothSolver:  Solving for Ux, Initial residual = 1.58358e-05, Final residual = 1.07159e-08, No Iterations 2
smoothSolver:  Solving for Uy, Initial residual = 3.74276e-05, Final residual = 2.53404e-08, No Iterations 2
DICPCG:  Solving for p, Initial residual = 2.06936e-05, Final residual = 9.38256e-08, No Iterations 189
time step continuity errors : sum local = 1.36608e-13, global = -1.75724e-15, cumulative = -1.10772e-11
DICPCG:  Solving for p, Initial residual = 2.59596e-06, Final residual = 9.86518e-08, No Iterations 142
time step continuity errors : sum local = 1.43626e-13, global = -5.29848e-15, cumulative = -1.10825e-11
ExecutionTime = 74.15 s  ClockTime = 78 s

Time = 9.624

Courant Number mean: 0.0213186 max: 0.100733
smoothSolver:  Solving for Ux, Initial residual = 1.58238e-05, Final residual = 1.07077e-08, No Iterations 2
smoothSolver:  Solving for Uy, Initial residual = 3.74093e-05, Final residual = 2.53232e-08, No Iterations 2
DICPCG:  Solving for p, Initial residual = 2.01924e-05, Final residual = 9.47929e-08, No Iterations 188
time step continuity errors : sum local = 1.38006e-13, global = -1.33146e-15, cumulative = -1.10839e-11
DICPCG:  Solving for p, Initial residual = 2.58652e-06, Final residual = 9.73247e-08, No Iterations 142
time step continuity errors : sum local = 1.41683e-13, global = -5.11201e-15, cumulative = -1.1089e-11
ExecutionTime = 74.16 s  ClockTime = 78 s

Time = 9.626

Courant Number mean: 0.0213185 max: 0.100733
smoothSolver:  Solving for Ux, Initial residual = 1.58119e-05, Final residual = 1.06991e-08, No Iterations 2
smoothSolver:  Solving for Uy, Initial residual = 3.73887e-05, Final residual = 2.53045e-08, No Iterations 2
DICPCG:  Solving for p, Initial residual = 1.8413e-05, Final residual = 9.8759e-08, No Iterations 187
time step continuity errors : sum local = 1.43769e-13, global = -1.45085e-15, cumulative = -1.10904e-11
DICPCG:  Solving for p, Initial residual = 2.5589e-06, Final residual = 9.70095e-08, No Iterations 142
time step continuity errors : sum local = 1.41213e-13, global = -5.12413e-15, cumulative = -1.10956e-11
ExecutionTime = 74.17 s  ClockTime = 78 s

Time = 9.628

Courant Number mean: 0.0213184 max: 0.100733
smoothSolver:  Solving for Ux, Initial residual = 1.57999e-05, Final residual = 1.06907e-08, No Iterations 2
smoothSolver:  Solving for Uy, Initial residual = 3.73691e-05, Final residual = 2.52864e-08, No Iterations 2
DICPCG:  Solving for p, Initial residual = 1.81232e-05, Final residual = 9.81419e-08, No Iterations 187
time step continuity errors : sum local = 1.4286e-13, global = -1.5e-15, cumulative = -1.10971e-11
DICPCG:  Solving for p, Initial residual = 2.55376e-06, Final residual = 9.6952e-08, No Iterations 142
time step continuity errors : sum local = 1.41119e-13, global = -5.12232e-15, cumulative = -1.11022e-11
ExecutionTime = 74.19 s  ClockTime = 78 s

Time = 9.63

Courant Number mean: 0.0213183 max: 0.100733
smoothSolver:  Solving for Ux, Initial residual = 1.5788e-05, Final residual = 1.06822e-08, No Iterations 2
smoothSolver:  Solving for Uy, Initial residual = 3.73496e-05, Final residual = 2.52683e-08, No Iterations 2
DICPCG:  Solving for p, Initial residual = 1.80819e-05, Final residual = 9.81385e-08, No Iterations 187
time step continuity errors : sum local = 1.42844e-13, global = -1.50355e-15, cumulative = -1.11037e-11
DICPCG:  Solving for p, Initial residual = 2.55183e-06, Final residual = 9.68725e-08, No Iterations 142
time step continuity errors : sum local = 1.40992e-13, global = -5.11914e-15, cumulative = -1.11088e-11
ExecutionTime = 74.2 s  ClockTime = 78 s

Time = 9.632

Courant Number mean: 0.0213182 max: 0.100732
smoothSolver:  Solving for Ux, Initial residual = 1.57761e-05, Final residual = 1.06738e-08, No Iterations 2
smoothSolver:  Solving for Uy, Initial residual = 3.73301e-05, Final residual = 2.52502e-08, No Iterations 2
DICPCG:  Solving for p, Initial residual = 1.8065e-05, Final residual = 9.80913e-08, No Iterations 187
time step continuity errors : sum local = 1.42764e-13, global = -1.50458e-15, cumulative = -1.11103e-11
DICPCG:  Solving for p, Initial residual = 2.55001e-06, Final residual = 9.67993e-08, No Iterations 142
time step continuity errors : sum local = 1.40875e-13, global = -5.1154e-15, cumulative = -1.11154e-11
ExecutionTime = 74.21 s  ClockTime = 78 s

Time = 9.634

Courant Number mean: 0.0213181 max: 0.100732
smoothSolver:  Solving for Ux, Initial residual = 1.57641e-05, Final residual = 1.06654e-08, No Iterations 2
smoothSolver:  Solving for Uy, Initial residual = 3.73106e-05, Final residual = 2.52322e-08, No Iterations 2
DICPCG:  Solving for p, Initial residual = 1.80553e-05, Final residual = 9.80457e-08, No Iterations 187
time step continuity errors : sum local = 1.42687e-13, global = -1.50513e-15, cumulative = -1.11169e-11
DICPCG:  Solving for p, Initial residual = 2.5482e-06, Final residual = 9.67273e-08, No Iterations 142
time step continuity errors : sum local = 1.4076e-13, global = -5.11162e-15, cumulative = -1.1122e-11
ExecutionTime = 74.22 s  ClockTime = 78 s

End

Finalising parallel run
